# generated using pymatgen
data_Zr2Ti3V51(Cr3W)2
_symmetry_space_group_name_H-M   'P 1'
_cell_length_a   10.47150978
_cell_length_b   10.45566637
_cell_length_c   10.41930309
_cell_angle_alpha   109.40638743
_cell_angle_beta   109.55982981
_cell_angle_gamma   109.41272104
_symmetry_Int_Tables_number   1
_chemical_formula_structural   Zr2Ti3V51(Cr3W)2
_chemical_formula_sum   'Zr2 Ti3 V51 Cr6 W2'
_cell_volume   878.54300163
_cell_formula_units_Z   1
loop_
 _symmetry_equiv_pos_site_id
 _symmetry_equiv_pos_as_xyz
  1  'x, y, z'
loop_
 _atom_site_type_symbol
 _atom_site_label
 _atom_site_symmetry_multiplicity
 _atom_site_fract_x
 _atom_site_fract_y
 _atom_site_fract_z
 _atom_site_occupancy
  Zr  Zr0  1  0.24960712  -0.00582144  0.74578343  1
  Zr  Zr1  1  0.50028787  -0.00391877  -0.00425948  1
  Ti  Ti2  1  0.25160953  0.26170374  0.74250471  1
  Ti  Ti3  1  0.25418753  0.75097554  0.49946039  1
  Ti  Ti4  1  0.75167356  0.50225865  0.50607128  1
  V  V5  1  0.00182010  -0.00047370  0.00131828  1
  V  V6  1  0.00070359  0.00635776  0.25197845  1
  V  V7  1  -0.01272226  -0.00572519  0.49114483  1
  V  V8  1  -0.00860240  0.00087488  0.75206968  1
  V  V9  1  0.00322558  0.25336136  0.00800097  1
  V  V10  1  0.00361049  0.25010275  0.49591955  1
  V  V11  1  0.00186287  0.50207347  0.00330798  1
  V  V12  1  -0.00020496  0.49210030  0.24440676  1
  V  V13  1  0.00133761  0.49654848  0.49672560  1
  V  V14  1  -0.00282872  0.49595031  0.74875244  1
  V  V15  1  -0.00614657  0.74537327  0.00104900  1
  V  V16  1  0.00074905  0.75081171  0.24913024  1
  V  V17  1  -0.02421620  0.73431652  0.48461419  1
  V  V18  1  0.00208245  0.75422721  0.76182138  1
  V  V19  1  0.24657054  -0.00354758  0.24559315  1
  V  V20  1  0.24695863  0.01475130  0.48657352  1
  V  V21  1  0.24632825  0.25227265  0.00603337  1
  V  V22  1  0.24423248  0.25360328  0.25753402  1
  V  V23  1  0.24948241  0.49989378  0.00010596  1
  V  V24  1  0.25031875  0.50236834  0.24998176  1
  V  V25  1  0.24705133  0.48802869  0.49714896  1
  V  V26  1  0.24680764  0.74830023  0.00441892  1
  V  V27  1  0.24758595  0.74705371  0.24359627  1
  V  V28  1  0.23846010  0.70963646  0.74283222  1
  V  V29  1  0.50038808  -0.00110661  0.25995903  1
  V  V30  1  0.50321816  -0.00096996  0.50205752  1
  V  V31  1  0.51264322  0.27886481  0.01268818  1
  V  V32  1  0.49894791  0.25509515  0.50198138  1
  V  V33  1  0.50919836  0.25155306  0.74822768  1
  V  V34  1  0.50714221  0.50957370  0.00710465  1
  V  V35  1  0.49753273  0.50299942  0.25240351  1
  V  V36  1  0.49754874  0.50461935  0.50243976  1
  V  V37  1  0.49765866  0.49904826  0.74599415  1
  V  V38  1  0.49885776  0.73513096  -0.00277818  1
  V  V39  1  0.50053613  0.75221944  0.25168689  1
  V  V40  1  0.50195239  0.74284704  0.49429235  1
  V  V41  1  0.50547652  0.74973426  0.74723793  1
  V  V42  1  0.76820504  0.00504366  0.00999093  1
  V  V43  1  0.75083350  -0.00103411  0.25495650  1
  V  V44  1  0.74650647  -0.00087455  0.74814231  1
  V  V45  1  0.75264572  0.24944407  -0.00364646  1
  V  V46  1  0.76488860  0.25656362  0.26054209  1
  V  V47  1  0.74782970  0.24027827  0.49821429  1
  V  V48  1  0.75348841  0.25667343  0.75069338  1
  V  V49  1  0.75407739  0.50479165  -0.00067691  1
  V  V50  1  0.75378180  0.50316249  0.24677211  1
  V  V51  1  0.74940404  0.50195347  0.75652490  1
  V  V52  1  0.75137606  0.75210486  0.00120366  1
  V  V53  1  0.75046648  0.75261454  0.24756727  1
  V  V54  1  0.74689299  0.75894409  0.50047436  1
  V  V55  1  0.74835019  0.74735033  0.75097385  1
  Cr  Cr56  1  -0.00001102  0.24862694  0.24866001  1
  Cr  Cr57  1  0.23704178  -0.00032641  0.01222032  1
  Cr  Cr58  1  0.24902123  0.25004472  0.49224897  1
  Cr  Cr59  1  0.25015714  0.50062716  0.74932477  1
  Cr  Cr60  1  0.52368258  0.00614848  0.74401633  1
  Cr  Cr61  1  0.74916465  -0.00007309  0.49702510  1
  W  W62  1  -0.00583621  0.24740165  0.74844753  1
  W  W63  1  0.49510026  0.24746816  0.24941203  1
