# generated using pymatgen
data_Zr3Ti6V49(CrW2)2
_symmetry_space_group_name_H-M   'P 1'
_cell_length_a   10.59715243
_cell_length_b   10.58978941
_cell_length_c   10.57010753
_cell_angle_alpha   109.43429107
_cell_angle_beta   109.59865986
_cell_angle_gamma   109.35688803
_symmetry_Int_Tables_number   1
_chemical_formula_structural   Zr3Ti6V49(CrW2)2
_chemical_formula_sum   'Zr3 Ti6 V49 Cr2 W4'
_cell_volume   913.39814747
_cell_formula_units_Z   1
loop_
 _symmetry_equiv_pos_site_id
 _symmetry_equiv_pos_as_xyz
  1  'x, y, z'
loop_
 _atom_site_type_symbol
 _atom_site_label
 _atom_site_symmetry_multiplicity
 _atom_site_fract_x
 _atom_site_fract_y
 _atom_site_fract_z
 _atom_site_occupancy
  Zr  Zr0  1  -0.00592042  0.50351052  0.49416095  1
  Zr  Zr1  1  0.25207937  0.25112980  0.25077819  1
  Zr  Zr2  1  0.74569689  0.25089956  0.00505886  1
  Ti  Ti3  1  -0.00171682  -0.00286150  0.75463057  1
  Ti  Ti4  1  0.00221335  0.24403528  0.49814198  1
  Ti  Ti5  1  0.25737003  0.50924840  0.00469836  1
  Ti  Ti6  1  0.49824666  -0.00641471  -0.00359601  1
  Ti  Ti7  1  0.49998965  0.25028345  0.49880600  1
  Ti  Ti8  1  0.74723084  0.50821793  0.25121135  1
  V  V9  1  -0.01184135  -0.01522584  -0.00377879  1
  V  V10  1  -0.00398176  -0.00619650  0.24467057  1
  V  V11  1  0.00852810  0.25199362  -0.00199979  1
  V  V12  1  -0.01225672  0.24277126  0.23842983  1
  V  V13  1  0.03371582  0.51673482  0.25293211  1
  V  V14  1  0.00844306  0.50763570  0.76345890  1
  V  V15  1  0.00442020  0.75281211  0.00177276  1
  V  V16  1  -0.00108809  0.75021091  0.24877975  1
  V  V17  1  0.00313378  0.76771352  0.50932639  1
  V  V18  1  -0.00061755  0.74669109  0.75266621  1
  V  V19  1  0.24300638  -0.01236081  -0.00287840  1
  V  V20  1  0.24218098  -0.01663059  0.24400029  1
  V  V21  1  0.25406376  -0.00421772  0.75153332  1
  V  V22  1  0.26010371  0.25229239  -0.00394106  1
  V  V23  1  0.25892271  0.25685217  0.51751397  1
  V  V24  1  0.24959753  0.25436750  0.75134852  1
  V  V25  1  0.26408602  0.50729943  0.50192782  1
  V  V26  1  0.26160710  0.50941490  0.75121407  1
  V  V27  1  0.25816909  0.75194380  0.24793764  1
  V  V28  1  0.25761199  0.75600318  0.50471090  1
  V  V29  1  0.25293830  0.75176836  0.76112799  1
  V  V30  1  0.49030765  -0.00952749  0.24718012  1
  V  V31  1  0.50220772  -0.00470806  0.49910181  1
  V  V32  1  0.49054925  -0.01534642  0.73210662  1
  V  V33  1  0.47713111  0.24970856  -0.01062004  1
  V  V34  1  0.51163877  0.24874940  0.23977525  1
  V  V35  1  0.49946525  0.25163264  0.75180490  1
  V  V36  1  0.50485577  0.50452583  0.00030029  1
  V  V37  1  0.49400055  0.50839213  0.24995241  1
  V  V38  1  0.51333365  0.52076705  0.51530980  1
  V  V39  1  0.50030435  0.50201279  0.75076719  1
  V  V40  1  0.49246805  0.74180054  -0.00177816  1
  V  V41  1  0.50804721  0.75693455  0.25524213  1
  V  V42  1  0.50096771  0.75086861  0.49818776  1
  V  V43  1  0.50027240  0.75105647  0.75256663  1
  V  V44  1  0.75115378  -0.01959757  -0.00612112  1
  V  V45  1  0.73850562  -0.01627579  0.24008497  1
  V  V46  1  0.74655682  -0.00378409  0.50085784  1
  V  V47  1  0.74032372  -0.00620988  0.74645293  1
  V  V48  1  0.74118516  0.22434202  0.26368833  1
  V  V49  1  0.74448666  0.24579209  0.50253549  1
  V  V50  1  0.74535776  0.24781492  0.73907151  1
  V  V51  1  0.74805180  0.51359664  -0.00813692  1
  V  V52  1  0.73420744  0.50166785  0.50946059  1
  V  V53  1  0.75292925  0.50705322  0.75287010  1
  V  V54  1  0.74658738  0.74617421  -0.00274221  1
  V  V55  1  0.74441036  0.75208572  0.24697161  1
  V  V56  1  0.74307564  0.74655270  0.49557199  1
  V  V57  1  0.75085516  0.75207316  0.75049054  1
  Cr  Cr58  1  0.26144237  0.51605649  0.25870814  1
  Cr  Cr59  1  0.25360188  0.75528493  0.00048861  1
  W  W60  1  -0.00330929  -0.00557052  0.49621076  1
  W  W61  1  -0.00332341  0.25064288  0.75041494  1
  W  W62  1  -0.00110468  0.50470043  -0.00026572  1
  W  W63  1  0.25352455  0.00081196  0.49884763  1
