# generated using pymatgen
data_ZrTi2V58CrW2
_symmetry_space_group_name_H-M   'P 1'
_cell_length_a   10.45870617
_cell_length_b   10.45571725
_cell_length_c   10.42774931
_cell_angle_alpha   109.51211417
_cell_angle_beta   109.38879575
_cell_angle_gamma   109.55219955
_symmetry_Int_Tables_number   1
_chemical_formula_structural   ZrTi2V58CrW2
_chemical_formula_sum   'Zr1 Ti2 V58 Cr1 W2'
_cell_volume   877.38085516
_cell_formula_units_Z   1
loop_
 _symmetry_equiv_pos_site_id
 _symmetry_equiv_pos_as_xyz
  1  'x, y, z'
loop_
 _atom_site_type_symbol
 _atom_site_label
 _atom_site_symmetry_multiplicity
 _atom_site_fract_x
 _atom_site_fract_y
 _atom_site_fract_z
 _atom_site_occupancy
  Zr  Zr0  1  -0.00283488  0.73826889  -0.01169406  1
  Ti  Ti1  1  -0.00010919  0.49571704  0.74565761  1
  Ti  Ti2  1  0.26436994  0.01394141  0.26379875  1
  V  V3  1  -0.00115982  0.01495870  -0.00044805  1
  V  V4  1  -0.00089060  0.00288440  0.50366120  1
  V  V5  1  -0.00206884  0.00104591  0.74753646  1
  V  V6  1  -0.00054226  0.25300258  0.24840642  1
  V  V7  1  0.00032110  0.25342640  0.50336979  1
  V  V8  1  -0.00093569  0.24251683  0.75222767  1
  V  V9  1  -0.00207583  0.47362662  0.00582228  1
  V  V10  1  -0.00072137  0.49887029  0.25292252  1
  V  V11  1  0.00017579  0.49665576  0.49202041  1
  V  V12  1  0.00090504  0.75058669  0.26236448  1
  V  V13  1  -0.00094305  0.74932730  0.49858109  1
  V  V14  1  -0.00178424  0.75882360  0.73010589  1
  V  V15  1  0.25445799  0.00563405  -0.00558219  1
  V  V16  1  0.25295624  0.00155270  0.51239017  1
  V  V17  1  0.25322584  0.00332360  0.75172284  1
  V  V18  1  0.24756419  0.25010484  0.00153486  1
  V  V19  1  0.25359170  0.26191312  0.25285691  1
  V  V20  1  0.24890020  0.25195017  0.50075866  1
  V  V21  1  0.24795067  0.24853016  0.74883098  1
  V  V22  1  0.25035137  0.49858305  -0.00076790  1
  V  V23  1  0.25001656  0.49793668  0.25104851  1
  V  V24  1  0.24977483  0.50066893  0.49980236  1
  V  V25  1  0.25130991  0.49685996  0.74395584  1
  V  V26  1  0.27829477  0.75985900  0.00953095  1
  V  V27  1  0.25499111  0.74457204  0.25603477  1
  V  V28  1  0.25428919  0.75089270  0.50250636  1
  V  V29  1  0.25118713  0.74912478  0.74716743  1
  V  V30  1  0.50348791  0.00383306  -0.00030161  1
  V  V31  1  0.51149578  0.00379706  0.25402828  1
  V  V32  1  0.50102020  -0.00221020  0.50294583  1
  V  V33  1  0.50092938  -0.00022187  0.75030297  1
  V  V34  1  0.50067725  0.24870477  0.00125181  1
  V  V35  1  0.50027030  0.25224835  0.24806105  1
  V  V36  1  0.50811668  0.25826214  0.50801079  1
  V  V37  1  0.49825169  0.24501446  0.75031651  1
  V  V38  1  0.50027456  0.50014734  0.25248882  1
  V  V39  1  0.49753677  0.50299506  0.49799667  1
  V  V40  1  0.49555366  0.49946479  0.74685195  1
  V  V41  1  0.50111882  0.75162990  -0.00056739  1
  V  V42  1  0.50342833  0.75210456  0.25704007  1
  V  V43  1  0.50045020  0.75130553  0.50132519  1
  V  V44  1  0.49898710  0.75215670  0.74624960  1
  V  V45  1  0.74522067  0.00107655  -0.00345716  1
  V  V46  1  0.75106311  0.00390420  0.25298389  1
  V  V47  1  0.75045015  -0.00004392  0.50223317  1
  V  V48  1  0.74890101  0.00119353  0.75062671  1
  V  V49  1  0.74941422  0.24592457  -0.00016794  1
  V  V50  1  0.75071337  0.25077995  0.24957449  1
  V  V51  1  0.74643362  0.24271501  0.49285988  1
  V  V52  1  0.74737321  0.24485263  0.74761939  1
  V  V53  1  0.74584111  0.49405323  0.00102961  1
  V  V54  1  0.74831117  0.49644756  0.24997018  1
  V  V55  1  0.74883327  0.49883819  0.49551704  1
  V  V56  1  0.72276641  0.48067244  0.73031390  1
  V  V57  1  0.74018982  0.75439531  -0.00100042  1
  V  V58  1  0.74839341  0.74977265  0.25423811  1
  V  V59  1  0.74580913  0.75049274  0.49842500  1
  V  V60  1  0.74392101  0.75232852  0.74495228  1
  Cr  Cr61  1  -0.00166238  0.24799014  -0.00023643  1
  W  W62  1  -0.00319038  0.00221573  0.25145304  1
  W  W63  1  0.49905165  0.49800112  0.00094174  1
