# generated using pymatgen
data_Zr2Ti3V51(Cr3W)2
_symmetry_space_group_name_H-M   'P 1'
_cell_length_a   10.42422226
_cell_length_b   10.44595949
_cell_length_c   10.47129644
_cell_angle_alpha   109.50448156
_cell_angle_beta   109.42395657
_cell_angle_gamma   109.40090140
_symmetry_Int_Tables_number   1
_chemical_formula_structural   Zr2Ti3V51(Cr3W)2
_chemical_formula_sum   'Zr2 Ti3 V51 Cr6 W2'
_cell_volume   878.66109558
_cell_formula_units_Z   1
loop_
 _symmetry_equiv_pos_site_id
 _symmetry_equiv_pos_as_xyz
  1  'x, y, z'
loop_
 _atom_site_type_symbol
 _atom_site_label
 _atom_site_symmetry_multiplicity
 _atom_site_fract_x
 _atom_site_fract_y
 _atom_site_fract_z
 _atom_site_occupancy
  Zr  Zr0  1  -0.00823278  0.24492705  -0.00542852  1
  Zr  Zr1  1  0.50025021  0.24957580  0.25326285  1
  Ti  Ti2  1  0.25205125  -0.00097465  0.25307746  1
  Ti  Ti3  1  0.50586892  -0.00342340  0.75012594  1
  Ti  Ti4  1  0.74566535  -0.01187350  -0.00819044  1
  V  V5  1  -0.00936532  -0.00577299  0.24250227  1
  V  V6  1  -0.00042735  -0.00401217  0.50099465  1
  V  V7  1  -0.00861164  -0.00547460  0.74578255  1
  V  V8  1  0.00600141  0.25646411  0.26989208  1
  V  V9  1  0.00086180  0.24931054  0.50226219  1
  V  V10  1  -0.00291385  0.24679852  0.73637168  1
  V  V11  1  0.00082235  0.50292785  0.25018549  1
  V  V12  1  0.00018526  0.50697331  0.50269039  1
  V  V13  1  -0.00062575  0.50122071  0.75417882  1
  V  V14  1  -0.00761781  0.74609958  -0.00655422  1
  V  V15  1  -0.00262312  0.74572558  0.74293082  1
  V  V16  1  0.22734283  -0.01462739  -0.01975318  1
  V  V17  1  0.25202254  0.00053933  0.50641507  1
  V  V18  1  0.23778646  -0.00919468  0.73904377  1
  V  V19  1  0.25834138  0.25155646  -0.00606567  1
  V  V20  1  0.23336611  0.25085312  0.24688324  1
  V  V21  1  0.25128174  0.24773840  0.50117202  1
  V  V22  1  0.24753359  0.24868906  0.74744086  1
  V  V23  1  0.24754284  0.50201618  -0.00066162  1
  V  V24  1  0.26022568  0.51215108  0.26079852  1
  V  V25  1  0.25959912  0.50918569  0.50849186  1
  V  V26  1  0.25030576  0.75092560  -0.00055408  1
  V  V27  1  0.24539548  0.73982190  0.24417244  1
  V  V28  1  0.24095676  0.74621288  0.49834106  1
  V  V29  1  0.25492292  0.75121158  0.75055604  1
  V  V30  1  0.49305390  -0.00430164  0.00287206  1
  V  V31  1  0.50878752  -0.01590941  0.24978035  1
  V  V32  1  0.49813866  0.00011304  0.49321189  1
  V  V33  1  0.49886320  0.25040963  -0.01128823  1
  V  V34  1  0.51088186  0.25986348  0.52401544  1
  V  V35  1  0.49944252  0.25506800  0.74930491  1
  V  V36  1  0.50055360  0.50181812  0.00275547  1
  V  V37  1  0.50406989  0.51410898  0.25258143  1
  V  V38  1  0.50405182  0.50356275  0.50202519  1
  V  V39  1  0.50641967  0.51006326  0.75504408  1
  V  V40  1  0.50600881  0.74986882  -0.00265920  1
  V  V41  1  0.50131852  0.74847138  0.24980900  1
  V  V42  1  0.50604779  0.75567162  0.50958096  1
  V  V43  1  0.75217543  -0.00276273  0.25479858  1
  V  V44  1  0.75054469  -0.00312423  0.50407831  1
  V  V45  1  0.74075664  0.26708608  0.00982514  1
  V  V46  1  0.76275502  0.24985010  0.25113671  1
  V  V47  1  0.75526996  0.25317411  0.50491445  1
  V  V48  1  0.75171903  0.25211653  0.75113041  1
  V  V49  1  0.75113579  0.50689221  -0.00240023  1
  V  V50  1  0.75572010  0.50822054  0.25667324  1
  V  V51  1  0.75968158  0.51155833  0.51302555  1
  V  V52  1  0.75071697  0.50221122  0.74944751  1
  V  V53  1  0.74888397  0.75017084  0.24617763  1
  V  V54  1  0.75548804  0.74736279  0.49736419  1
  V  V55  1  0.74904482  0.75359458  0.75346420  1
  Cr  Cr56  1  0.00186327  -0.01275412  -0.00306111  1
  Cr  Cr57  1  -0.00005022  0.50818901  -0.00255762  1
  Cr  Cr58  1  -0.00041473  0.75035207  0.50103244  1
  Cr  Cr59  1  0.49690155  0.74152143  0.74473474  1
  Cr  Cr60  1  0.74428616  -0.01405887  0.72964148  1
  Cr  Cr61  1  0.74734702  0.74344296  -0.00108919  1
  W  W62  1  0.00098162  0.75224328  0.25341528  1
  W  W63  1  0.24964339  0.50033488  0.75085059  1
