# generated using pymatgen
data_Zr3Ti6V49(CrW2)2
_symmetry_space_group_name_H-M   'P 1'
_cell_length_a   10.60100609
_cell_length_b   10.57875088
_cell_length_c   10.56016335
_cell_angle_alpha   109.16616559
_cell_angle_beta   109.44283433
_cell_angle_gamma   109.60425731
_symmetry_Int_Tables_number   1
_chemical_formula_structural   Zr3Ti6V49(CrW2)2
_chemical_formula_sum   'Zr3 Ti6 V49 Cr2 W4'
_cell_volume   913.89192624
_cell_formula_units_Z   1
loop_
 _symmetry_equiv_pos_site_id
 _symmetry_equiv_pos_as_xyz
  1  'x, y, z'
loop_
 _atom_site_type_symbol
 _atom_site_label
 _atom_site_symmetry_multiplicity
 _atom_site_fract_x
 _atom_site_fract_y
 _atom_site_fract_z
 _atom_site_occupancy
  Zr  Zr0  1  -0.00081481  0.25203996  -0.00305796  1
  Zr  Zr1  1  0.50540937  0.00217684  0.75393719  1
  Zr  Zr2  1  0.74592532  -0.00209494  -0.00309756  1
  Ti  Ti3  1  0.25415364  -0.00386970  0.24793844  1
  Ti  Ti4  1  0.24261460  0.24760224  0.23856456  1
  Ti  Ti5  1  0.50344601  0.49440634  0.50189409  1
  Ti  Ti6  1  0.49801155  0.75257994  0.49474675  1
  Ti  Ti7  1  0.74769798  -0.00507107  0.26126257  1
  Ti  Ti8  1  0.75099880  0.25624738  0.74758771  1
  V  V9  1  0.00546460  -0.02779743  -0.00756146  1
  V  V10  1  -0.00093120  -0.00271867  0.49947490  1
  V  V11  1  0.01017634  -0.00278186  0.74662272  1
  V  V12  1  0.00010375  0.25917148  0.27754207  1
  V  V13  1  0.00274230  0.25509289  0.51053509  1
  V  V14  1  0.00884956  0.25413063  0.73934790  1
  V  V15  1  0.00800755  0.52112994  0.00591358  1
  V  V16  1  -0.00121274  0.50847334  0.25512453  1
  V  V17  1  -0.00056981  0.50482254  0.50672212  1
  V  V18  1  0.00287114  0.50204604  0.75213835  1
  V  V19  1  -0.00337713  0.74064393  -0.00640603  1
  V  V20  1  -0.00215861  0.74916210  0.25164842  1
  V  V21  1  -0.00053417  0.75004915  0.50008923  1
  V  V22  1  0.00545860  0.74638595  0.74792494  1
  V  V23  1  0.25901687  -0.00137578  -0.00373406  1
  V  V24  1  0.24393627  0.00170571  0.75152404  1
  V  V25  1  0.27272409  0.25580762  -0.00335802  1
  V  V26  1  0.25101842  0.24989921  0.50542491  1
  V  V27  1  0.24954610  0.25352867  0.75251810  1
  V  V28  1  0.25320192  0.50369402  -0.00110494  1
  V  V29  1  0.25531429  0.51252051  0.24973590  1
  V  V30  1  0.24839157  0.50020050  0.75534657  1
  V  V31  1  0.24834627  0.74564227  -0.00262605  1
  V  V32  1  0.24899133  0.74306297  0.24706038  1
  V  V33  1  0.23045887  0.74226174  0.49225687  1
  V  V34  1  0.24877863  0.75103371  0.75551341  1
  V  V35  1  0.49777808  -0.00139293  0.23689043  1
  V  V36  1  0.48981838  0.00344008  0.48052669  1
  V  V37  1  0.50318701  0.25380234  0.24753920  1
  V  V38  1  0.50788680  0.24855452  0.50674866  1
  V  V39  1  0.49403649  0.26120502  0.75591361  1
  V  V40  1  0.49970616  0.50144438  0.00306445  1
  V  V41  1  0.49837966  0.50260286  0.24527739  1
  V  V42  1  0.49815880  0.49685087  0.75739987  1
  V  V43  1  0.49121505  0.74338065  -0.00233182  1
  V  V44  1  0.49791150  0.74508151  0.23765729  1
  V  V45  1  0.48744720  0.72189003  0.74783842  1
  V  V46  1  0.75063116  -0.00015505  0.50217860  1
  V  V47  1  0.76792148  -0.01935012  0.72131168  1
  V  V48  1  0.74160469  0.28486362  0.02436113  1
  V  V49  1  0.74387213  0.25167587  0.25098325  1
  V  V50  1  0.75182827  0.25313307  0.49484152  1
  V  V51  1  0.74865517  0.50601603  0.00127810  1
  V  V52  1  0.74730621  0.50639175  0.25216018  1
  V  V53  1  0.75027648  0.50452541  0.74854665  1
  V  V54  1  0.74747250  0.73846582  0.00371908  1
  V  V55  1  0.74794742  0.74157334  0.25001749  1
  V  V56  1  0.75441810  0.74565118  0.49357341  1
  V  V57  1  0.75812494  0.74814728  0.75392945  1
  Cr  Cr58  1  0.48615331  -0.00102323  0.00765383  1
  Cr  Cr59  1  0.49675733  0.25507991  0.00280347  1
  W  W60  1  0.00022256  -0.00250931  0.25182249  1
  W  W61  1  0.24858088  0.00056823  0.50465636  1
  W  W62  1  0.24689284  0.50019442  0.50237154  1
  W  W63  1  0.75375215  0.50008430  0.49981833  1
