# generated using pymatgen
data_ZrTiV56(Cr2W)2
_symmetry_space_group_name_H-M   'P 1'
_cell_length_a   10.45828670
_cell_length_b   10.37530179
_cell_length_c   10.39196419
_cell_angle_alpha   109.31042829
_cell_angle_beta   109.74114200
_cell_angle_gamma   109.50534914
_symmetry_Int_Tables_number   1
_chemical_formula_structural   ZrTiV56(Cr2W)2
_chemical_formula_sum   'Zr1 Ti1 V56 Cr4 W2'
_cell_volume   866.48731150
_cell_formula_units_Z   1
loop_
 _symmetry_equiv_pos_site_id
 _symmetry_equiv_pos_as_xyz
  1  'x, y, z'
loop_
 _atom_site_type_symbol
 _atom_site_label
 _atom_site_symmetry_multiplicity
 _atom_site_fract_x
 _atom_site_fract_y
 _atom_site_fract_z
 _atom_site_occupancy
  Zr  Zr0  1  0.74952431  0.25145831  0.75213761  1
  Ti  Ti1  1  0.00024844  0.24556634  0.00258647  1
  V  V2  1  0.00350827  -0.00725081  0.00407724  1
  V  V3  1  -0.00072886  0.00064282  0.24874617  1
  V  V4  1  -0.00050492  -0.00894369  0.49120770  1
  V  V5  1  -0.00243060  -0.00479825  0.74929777  1
  V  V6  1  0.00195381  0.24826835  0.25695969  1
  V  V7  1  0.00174273  0.24936068  0.49578331  1
  V  V8  1  0.01730005  0.52638555  0.01873802  1
  V  V9  1  0.00240260  0.50133531  0.25332599  1
  V  V10  1  0.00254147  0.50373103  0.50032993  1
  V  V11  1  0.00412119  0.50593502  0.74878533  1
  V  V12  1  0.00002923  0.75267815  -0.00004070  1
  V  V13  1  -0.00040139  0.75497996  0.25525914  1
  V  V14  1  -0.00086210  0.74848283  0.50069327  1
  V  V15  1  0.00129479  0.75091304  0.74804392  1
  V  V16  1  0.24974977  -0.00145247  -0.00026232  1
  V  V17  1  0.24782988  0.00019710  0.25328660  1
  V  V18  1  0.24437576  -0.00388864  0.74430244  1
  V  V19  1  0.26092104  0.25030445  0.00450693  1
  V  V20  1  0.24963568  0.25033312  0.25014143  1
  V  V21  1  0.24859420  0.24551863  0.49760757  1
  V  V22  1  0.25286848  0.25049438  0.75016443  1
  V  V23  1  0.25675590  0.50451102  0.00392547  1
  V  V24  1  0.25930396  0.50679485  0.25900386  1
  V  V25  1  0.25555094  0.50455179  0.50461803  1
  V  V26  1  0.25515635  0.50342193  0.75013518  1
  V  V27  1  0.25387193  0.75330205  0.00037859  1
  V  V28  1  0.25192700  0.75015986  0.25113190  1
  V  V29  1  0.24370409  0.74915333  0.49717834  1
  V  V30  1  0.25134207  0.74807715  0.74930133  1
  V  V31  1  0.49611385  -0.00312279  0.00278562  1
  V  V32  1  0.49873872  -0.00229835  0.24731796  1
  V  V33  1  0.48149656  -0.01188774  0.48501493  1
  V  V34  1  0.49708310  0.25018977  0.00130595  1
  V  V35  1  0.49782126  0.24989967  0.25022658  1
  V  V36  1  0.49715970  0.25188752  0.49636005  1
  V  V37  1  0.48336079  0.24548557  0.74299772  1
  V  V38  1  0.50610578  0.50691391  0.00575503  1
  V  V39  1  0.49979287  0.50054352  0.25125739  1
  V  V40  1  0.49831914  0.49827950  0.49753315  1
  V  V41  1  0.49946791  0.50541231  0.74940697  1
  V  V42  1  0.50017323  0.75029990  -0.00435906  1
  V  V43  1  0.50625117  0.75036239  0.24983951  1
  V  V44  1  0.50423777  0.75062054  0.50496439  1
  V  V45  1  0.74755522  -0.00664025  -0.00367070  1
  V  V46  1  0.74960911  -0.00815583  0.24823502  1
  V  V47  1  0.74764348  -0.00608963  0.49724307  1
  V  V48  1  0.74261164  0.25230198  0.01817406  1
  V  V49  1  0.74925567  0.24835193  0.25040473  1
  V  V50  1  0.74707868  0.24882939  0.48295654  1
  V  V51  1  0.74916984  0.50435207  0.00213699  1
  V  V52  1  0.75057845  0.50807234  0.25164605  1
  V  V53  1  0.74988745  0.50255430  0.49981344  1
  V  V54  1  0.74791083  0.51426255  0.74897707  1
  V  V55  1  0.75002503  0.75016907  0.00702055  1
  V  V56  1  0.75089940  0.74709116  0.49156815  1
  V  V57  1  0.74641546  0.75436873  0.74947200  1
  Cr  Cr58  1  0.24516918  -0.00205761  0.49746925  1
  Cr  Cr59  1  0.49752428  0.74568161  0.75024178  1
  Cr  Cr60  1  0.74464862  -0.01826262  0.74259253  1
  Cr  Cr61  1  0.74968875  0.75018494  0.24942689  1
  W  W62  1  0.00950539  0.24891588  0.74471589  1
  W  W63  1  0.49737563  -0.00673893  0.74981992  1
