# generated using pymatgen
data_Zr3Ti4V48Cr5W4
_symmetry_space_group_name_H-M   'P 1'
_cell_length_a   10.53762865
_cell_length_b   10.53510725
_cell_length_c   10.53113434
_cell_angle_alpha   109.48269975
_cell_angle_beta   109.66062687
_cell_angle_gamma   109.37489369
_symmetry_Int_Tables_number   1
_chemical_formula_structural   Zr3Ti4V48Cr5W4
_chemical_formula_sum   'Zr3 Ti4 V48 Cr5 W4'
_cell_volume   898.81718945
_cell_formula_units_Z   1
loop_
 _symmetry_equiv_pos_site_id
 _symmetry_equiv_pos_as_xyz
  1  'x, y, z'
loop_
 _atom_site_type_symbol
 _atom_site_label
 _atom_site_symmetry_multiplicity
 _atom_site_fract_x
 _atom_site_fract_y
 _atom_site_fract_z
 _atom_site_occupancy
  Zr  Zr0  1  0.99908153  0.50605612  0.75114358  1
  Zr  Zr1  1  0.26914523  0.49683535  0.75312937  1
  Zr  Zr2  1  0.75207925  0.51011958  0.49446005  1
  Ti  Ti3  1  0.99868431  0.50899805  0.25444535  1
  Ti  Ti4  1  0.25415702  0.23520415  0.75333801  1
  Ti  Ti5  1  0.24588917  0.75956046  0.74610033  1
  Ti  Ti6  1  0.50154496  0.50468845  0.25069578  1
  V  V7  1  0.99862879  0.99282911  0.25069454  1
  V  V8  1  0.99700240  0.99659757  0.49402892  1
  V  V9  1  0.99530150  0.00037856  0.74540261  1
  V  V10  1  0.00044127  0.24399378  0.24153820  1
  V  V11  1  0.98935509  0.22898900  0.48610973  1
  V  V12  1  0.99461704  0.23533427  0.76062319  1
  V  V13  1  0.00382402  0.47142796  0.47653190  1
  V  V14  1  0.00081958  0.75585756  0.01376099  1
  V  V15  1  0.00205067  0.76064847  0.49149594  1
  V  V16  1  0.00501920  0.78519659  0.76614240  1
  V  V17  1  0.25226165  0.00267893  0.00231773  1
  V  V18  1  0.24920224  0.00280509  0.25282017  1
  V  V19  1  0.24711139  0.99787480  0.49558538  1
  V  V20  1  0.25892466  0.00162871  0.74843620  1
  V  V21  1  0.24411468  0.24743478  0.00845147  1
  V  V22  1  0.24714224  0.23968455  0.48392748  1
  V  V23  1  0.25669448  0.50007863  0.01799173  1
  V  V24  1  0.24879361  0.49528475  0.24930038  1
  V  V25  1  0.25437835  0.50133005  0.48771574  1
  V  V26  1  0.26317701  0.76663867  0.02599794  1
  V  V27  1  0.24977870  0.75433588  0.25628018  1
  V  V28  1  0.26557803  0.76606429  0.50230696  1
  V  V29  1  0.50836409  0.00848315  0.00401461  1
  V  V30  1  0.49580051  0.99768306  0.24935740  1
  V  V31  1  0.49694130  0.99794061  0.50395518  1
  V  V32  1  0.49800713  0.25053003  0.99868062  1
  V  V33  1  0.47961110  0.23517105  0.23633246  1
  V  V34  1  0.49243709  0.24152160  0.49725911  1
  V  V35  1  0.50499227  0.24019701  0.74823278  1
  V  V36  1  0.50895643  0.50559204  0.00392645  1
  V  V37  1  0.48251211  0.49063697  0.49485500  1
  V  V38  1  0.51589269  0.49828902  0.74969001  1
  V  V39  1  0.51651858  0.76525772  0.01593899  1
  V  V40  1  0.49882520  0.75519556  0.25149665  1
  V  V41  1  0.50539242  0.75204132  0.49655698  1
  V  V42  1  0.75088835  0.00192810  0.00295183  1
  V  V43  1  0.74857634  0.99406964  0.24415981  1
  V  V44  1  0.74556937  0.98912687  0.49877039  1
  V  V45  1  0.74826221  0.00571394  0.75571414  1
  V  V46  1  0.74258972  0.23987388  0.99252040  1
  V  V47  1  0.74435468  0.24322874  0.24035308  1
  V  V48  1  0.74479159  0.24333715  0.74993983  1
  V  V49  1  0.75104599  0.50183118  0.00473106  1
  V  V50  1  0.73804730  0.49455230  0.22469052  1
  V  V51  1  0.73520678  0.49871497  0.75908803  1
  V  V52  1  0.75349914  0.75481506  0.00450329  1
  V  V53  1  0.75281669  0.75193487  0.25352318  1
  V  V54  1  0.74908310  0.75566862  0.74958100  1
  Cr  Cr55  1  0.99710635  0.24806762  0.00221038  1
  Cr  Cr56  1  0.00249078  0.76008853  0.25303078  1
  Cr  Cr57  1  0.24930584  0.24770147  0.24947459  1
  Cr  Cr58  1  0.50162064  0.00174388  0.74914405  1
  Cr  Cr59  1  0.75092635  0.76743339  0.50241943  1
  W  W60  1  0.00034463  0.00603654  0.00578691  1
  W  W61  1  0.99936586  0.49666331  0.00631182  1
  W  W62  1  0.50790677  0.75908209  0.75095859  1
  W  W63  1  0.73715257  0.23129456  0.48906840  1
