# generated using pymatgen
data_Zr2Ti5V51Cr5W
_symmetry_space_group_name_H-M   'P 1'
_cell_length_a   10.44280347
_cell_length_b   10.51275480
_cell_length_c   10.42813349
_cell_angle_alpha   109.57865711
_cell_angle_beta   108.75408670
_cell_angle_gamma   109.63619984
_symmetry_Int_Tables_number   1
_chemical_formula_structural   Zr2Ti5V51Cr5W
_chemical_formula_sum   'Zr2 Ti5 V51 Cr5 W1'
_cell_volume   886.04355751
_cell_formula_units_Z   1
loop_
 _symmetry_equiv_pos_site_id
 _symmetry_equiv_pos_as_xyz
  1  'x, y, z'
loop_
 _atom_site_type_symbol
 _atom_site_label
 _atom_site_symmetry_multiplicity
 _atom_site_fract_x
 _atom_site_fract_y
 _atom_site_fract_z
 _atom_site_occupancy
  Zr  Zr0  1  0.00365701  0.00556610  0.50763840  1
  Zr  Zr1  1  0.25232353  0.25175797  0.50232109  1
  Ti  Ti2  1  0.00209797  0.25434338  0.75384297  1
  Ti  Ti3  1  -0.00121198  0.49755236  0.24503546  1
  Ti  Ti4  1  0.25116050  -0.00483826  0.24787154  1
  Ti  Ti5  1  0.24873915  0.50135840  0.75131210  1
  Ti  Ti6  1  0.73998909  0.73626322  0.23218097  1
  V  V7  1  0.00059176  0.00004237  -0.00299021  1
  V  V8  1  -0.03000647  -0.02403301  0.21260938  1
  V  V9  1  -0.00387601  -0.00885587  0.76412637  1
  V  V10  1  0.00024692  0.25648272  0.00765947  1
  V  V11  1  -0.00406405  0.24406579  0.24046399  1
  V  V12  1  -0.02903864  0.26114464  0.47883682  1
  V  V13  1  0.00124578  0.50253453  -0.00317680  1
  V  V14  1  0.00084677  0.50702675  0.50680354  1
  V  V15  1  -0.00324242  0.50974180  0.75652826  1
  V  V16  1  -0.00801337  0.74276779  -0.00688131  1
  V  V17  1  0.01214568  0.75273932  0.24719606  1
  V  V18  1  -0.00205253  0.73601827  0.49812517  1
  V  V19  1  0.00194227  0.75070761  0.75363926  1
  V  V20  1  0.25314235  -0.00221005  -0.00414171  1
  V  V21  1  0.27029685  -0.01455515  0.51216606  1
  V  V22  1  0.25632054  0.00051420  0.75723747  1
  V  V23  1  0.24956647  0.24837062  -0.00239552  1
  V  V24  1  0.25134089  0.25884712  0.24035043  1
  V  V25  1  0.25563587  0.50686488  0.01262589  1
  V  V26  1  0.25250943  0.51250993  0.48708021  1
  V  V27  1  0.25079576  0.75055583  0.00302775  1
  V  V28  1  0.25660266  0.75137771  0.50207539  1
  V  V29  1  0.25577978  0.75812668  0.75648812  1
  V  V30  1  0.49773189  -0.00390030  -0.00237034  1
  V  V31  1  0.50029378  -0.00292802  0.24270864  1
  V  V32  1  0.50022101  -0.00239090  0.49833550  1
  V  V33  1  0.50614432  -0.00031390  0.75563260  1
  V  V34  1  0.50884814  0.25150299  0.00736792  1
  V  V35  1  0.49735007  0.24691254  0.24916617  1
  V  V36  1  0.51938474  0.25876525  0.50667392  1
  V  V37  1  0.50651558  0.25150875  0.75748945  1
  V  V38  1  0.50436782  0.50414075  0.50357146  1
  V  V39  1  0.52223933  0.51759261  0.76945241  1
  V  V40  1  0.50335075  0.75084100  0.00182602  1
  V  V41  1  0.49031417  0.75157781  0.24830750  1
  V  V42  1  0.50104469  0.74865824  0.50078874  1
  V  V43  1  0.49905735  0.75048019  0.74913253  1
  V  V44  1  0.74270240  -0.00450777  -0.00836736  1
  V  V45  1  0.73887200  -0.00063506  0.24191608  1
  V  V46  1  0.72746874  -0.00996561  0.49459998  1
  V  V47  1  0.74996126  0.00127826  0.75178216  1
  V  V48  1  0.74621675  0.24619829  -0.00480514  1
  V  V49  1  0.74333091  0.24914252  0.24231388  1
  V  V50  1  0.74403920  0.25051992  0.50079029  1
  V  V51  1  0.74734175  0.25229208  0.75690975  1
  V  V52  1  0.75071316  0.50008288  0.00194068  1
  V  V53  1  0.74680967  0.49302384  0.24978250  1
  V  V54  1  0.74799853  0.50288278  0.50065300  1
  V  V55  1  0.75201340  0.49989350  0.75106953  1
  V  V56  1  0.74807498  0.74890638  0.50515831  1
  V  V57  1  0.74790235  0.74958121  0.75289466  1
  Cr  Cr58  1  0.28214240  0.26887160  0.78681647  1
  Cr  Cr59  1  0.25232650  0.50405955  0.24798102  1
  Cr  Cr60  1  0.24843028  0.74155767  0.24711548  1
  Cr  Cr61  1  0.49425680  0.49323385  -0.00456047  1
  Cr  Cr62  1  0.74642092  0.74656208  -0.00985755  1
  W  W63  1  0.50064282  0.50178737  0.25012763  1
