# generated using pymatgen
data_Zr2Ti2V55CrW4
_symmetry_space_group_name_H-M   'P 1'
_cell_length_a   10.49494533
_cell_length_b   10.49601582
_cell_length_c   10.56634641
_cell_angle_alpha   109.57431698
_cell_angle_beta   109.55110771
_cell_angle_gamma   109.57485224
_symmetry_Int_Tables_number   1
_chemical_formula_structural   Zr2Ti2V55CrW4
_chemical_formula_sum   'Zr2 Ti2 V55 Cr1 W4'
_cell_volume   892.81573795
_cell_formula_units_Z   1
loop_
 _symmetry_equiv_pos_site_id
 _symmetry_equiv_pos_as_xyz
  1  'x, y, z'
loop_
 _atom_site_type_symbol
 _atom_site_label
 _atom_site_symmetry_multiplicity
 _atom_site_fract_x
 _atom_site_fract_y
 _atom_site_fract_z
 _atom_site_occupancy
  Zr  Zr0  1  0.00198131  0.50223906  0.24687279  1
  Zr  Zr1  1  0.25695864  0.75555746  0.25390915  1
  Ti  Ti2  1  -0.01928327  0.47822033  -0.03670122  1
  Ti  Ti3  1  0.50492611  0.00246420  0.25011862  1
  V  V4  1  -0.00409443  0.00147503  0.24608348  1
  V  V5  1  -0.00141019  0.00205095  0.50612264  1
  V  V6  1  -0.00286273  -0.00098203  0.75093740  1
  V  V7  1  -0.00361256  0.23001149  -0.00566622  1
  V  V8  1  -0.00769221  0.23471539  0.24652257  1
  V  V9  1  -0.00324847  0.24564632  0.50027801  1
  V  V10  1  0.00047490  0.24434810  0.74728340  1
  V  V11  1  -0.00185600  0.49901365  0.73965127  1
  V  V12  1  -0.00838588  0.75812780  -0.00673811  1
  V  V13  1  -0.01752776  0.76812718  0.25020019  1
  V  V14  1  -0.00271375  0.75532673  0.50614674  1
  V  V15  1  -0.00621069  0.75148057  0.74685853  1
  V  V16  1  0.24691778  0.01413437  0.24802333  1
  V  V17  1  0.24807895  0.00415050  0.50479081  1
  V  V18  1  0.24692743  0.00270340  0.75276464  1
  V  V19  1  0.24909157  0.24861026  -0.00486978  1
  V  V20  1  0.24756868  0.24732753  0.24741546  1
  V  V21  1  0.24718375  0.24961172  0.75155874  1
  V  V22  1  0.25660897  0.49656090  -0.00466348  1
  V  V23  1  0.26761186  0.48299955  0.25042713  1
  V  V24  1  0.25559656  0.50044288  0.50581935  1
  V  V25  1  0.25523084  0.49999122  0.75401680  1
  V  V26  1  0.24650607  0.74566104  -0.01903649  1
  V  V27  1  0.26860681  0.76736718  0.53513898  1
  V  V28  1  0.25366763  0.75217146  0.75420703  1
  V  V29  1  0.50405247  0.00099876  -0.00192825  1
  V  V30  1  0.51974242  0.01481173  0.51877869  1
  V  V31  1  0.50406542  0.00118990  0.75575304  1
  V  V32  1  0.50006137  0.25024578  0.00227942  1
  V  V33  1  0.50251076  0.25589622  0.25176277  1
  V  V34  1  0.50254247  0.25381626  0.49856564  1
  V  V35  1  0.49803128  0.49996836  -0.00184181  1
  V  V36  1  0.50370319  0.49969041  0.25190470  1
  V  V37  1  0.50517259  0.50443359  0.50617552  1
  V  V38  1  0.50220274  0.50430133  0.75229526  1
  V  V39  1  0.50383392  0.75332825  0.00037743  1
  V  V40  1  0.52006058  0.74770424  0.25128537  1
  V  V41  1  0.50882342  0.74998897  0.50760646  1
  V  V42  1  0.50586468  0.75021017  0.75456261  1
  V  V43  1  0.75119354  -0.00340284  -0.00146376  1
  V  V44  1  0.75481733  0.00024291  0.25012186  1
  V  V45  1  0.75348570  0.00024252  0.50044966  1
  V  V46  1  0.75081899  -0.00510236  0.74787015  1
  V  V47  1  0.73852268  0.23368410  -0.00822253  1
  V  V48  1  0.74506818  0.24418722  0.24856405  1
  V  V49  1  0.75265457  0.25240164  0.50373428  1
  V  V50  1  0.74030513  0.23699849  0.73823666  1
  V  V51  1  0.74078344  0.50165393  -0.00181188  1
  V  V52  1  0.73555807  0.49778556  0.25059468  1
  V  V53  1  0.74627261  0.50103440  0.50155800  1
  V  V54  1  0.74727767  0.50429772  0.74795770  1
  V  V55  1  0.74489589  0.74931728  -0.00518403  1
  V  V56  1  0.74848848  0.75178473  0.25185903  1
  V  V57  1  0.75233757  0.75187663  0.50582143  1
  V  V58  1  0.75157415  0.75347995  0.75214065  1
  Cr  Cr59  1  -0.00614906  -0.00238821  -0.00661649  1
  W  W60  1  -0.00127772  0.49948168  0.50526765  1
  W  W61  1  0.24881814  0.00170488  -0.00107319  1
  W  W62  1  0.24945565  0.25224102  0.50262630  1
  W  W63  1  0.49939174  0.25234055  0.75252115  1
