# generated using pymatgen
data_ZrTiV55Cr5W2
_symmetry_space_group_name_H-M   'P 1'
_cell_length_a   10.46849970
_cell_length_b   10.38333989
_cell_length_c   10.36767940
_cell_angle_alpha   109.41963513
_cell_angle_beta   109.61401804
_cell_angle_gamma   109.66415163
_symmetry_Int_Tables_number   1
_chemical_formula_structural   ZrTiV55Cr5W2
_chemical_formula_sum   'Zr1 Ti1 V55 Cr5 W2'
_cell_volume   864.46455307
_cell_formula_units_Z   1
loop_
 _symmetry_equiv_pos_site_id
 _symmetry_equiv_pos_as_xyz
  1  'x, y, z'
loop_
 _atom_site_type_symbol
 _atom_site_label
 _atom_site_symmetry_multiplicity
 _atom_site_fract_x
 _atom_site_fract_y
 _atom_site_fract_z
 _atom_site_occupancy
  Zr  Zr0  1  0.00356940  0.00307812  0.25156987  1
  Ti  Ti1  1  -0.00350726  0.74712404  -0.00676092  1
  V  V2  1  -0.00214225  0.00935117  -0.01885569  1
  V  V3  1  -0.00087975  -0.00141253  0.51268192  1
  V  V4  1  0.00134632  0.00553489  0.74865703  1
  V  V5  1  0.00075223  0.25227703  -0.00526727  1
  V  V6  1  -0.00088955  0.26537291  0.25061174  1
  V  V7  1  0.00131756  0.25271503  0.50723566  1
  V  V8  1  -0.00803599  0.48727264  -0.00778276  1
  V  V9  1  -0.00445281  0.49675518  0.25062426  1
  V  V10  1  0.00007946  0.49946078  0.50288557  1
  V  V11  1  -0.00138569  0.49550748  0.74816224  1
  V  V12  1  0.00119194  0.73625058  0.25972351  1
  V  V13  1  -0.00322345  0.74610715  0.50030881  1
  V  V14  1  -0.00175157  0.74665455  0.73953773  1
  V  V15  1  0.25180737  0.00236314  -0.00218638  1
  V  V16  1  0.27583836  0.01025284  0.25994041  1
  V  V17  1  0.25494513  0.00644172  0.50841647  1
  V  V18  1  0.25386850  0.00185884  0.75113325  1
  V  V19  1  0.25414720  0.25334441  0.00137696  1
  V  V20  1  0.25547137  0.25686667  0.25432140  1
  V  V21  1  0.24943006  0.25070857  0.74859163  1
  V  V22  1  0.24345769  0.48961293  -0.00781448  1
  V  V23  1  0.25578645  0.50201258  0.25375636  1
  V  V24  1  0.24893227  0.49543863  0.50038678  1
  V  V25  1  0.24590216  0.49860875  0.74780413  1
  V  V26  1  0.25261928  0.74732477  -0.00322997  1
  V  V27  1  0.25689946  0.75094414  0.50486217  1
  V  V28  1  0.24699391  0.74919322  0.74609746  1
  V  V29  1  0.50030887  0.00396145  -0.00261263  1
  V  V30  1  0.50604001  0.00623860  0.25509198  1
  V  V31  1  0.50866903  0.00350847  0.50945916  1
  V  V32  1  0.49911274  0.00161030  0.75104697  1
  V  V33  1  0.50310624  0.25333812  0.00304764  1
  V  V34  1  0.50184907  0.25328152  0.25130032  1
  V  V35  1  0.50069677  0.25324355  0.50292747  1
  V  V36  1  0.50396664  0.24815432  0.75266860  1
  V  V37  1  0.49569122  0.49424588  -0.00136402  1
  V  V38  1  0.50271093  0.49814340  0.24951202  1
  V  V39  1  0.50274227  0.50642079  0.49921170  1
  V  V40  1  0.49149641  0.48964505  0.74062170  1
  V  V41  1  0.50170158  0.74829273  0.25802661  1
  V  V42  1  0.49814872  0.75028450  0.74094782  1
  V  V43  1  0.74925522  0.00491934  -0.00179488  1
  V  V44  1  0.74219080  0.00520294  0.25660213  1
  V  V45  1  0.75558064  0.00580987  0.50636138  1
  V  V46  1  0.74367208  -0.00009943  0.74481241  1
  V  V47  1  0.74696357  0.24773253  -0.00734927  1
  V  V48  1  0.74959435  0.25786618  0.25174594  1
  V  V49  1  0.75041342  0.25188884  0.50534231  1
  V  V50  1  0.74663978  0.49643841  0.00175044  1
  V  V51  1  0.74975768  0.49864450  0.49543028  1
  V  V52  1  0.74408575  0.48605021  0.74185576  1
  V  V53  1  0.72994317  0.73516480  -0.01618933  1
  V  V54  1  0.74789750  0.74194383  0.25347388  1
  V  V55  1  0.74405292  0.75024059  0.50181252  1
  V  V56  1  0.74973247  0.74709122  0.74723847  1
  Cr  Cr57  1  -0.00259647  0.25038486  0.74971046  1
  Cr  Cr58  1  0.26111812  0.26131156  0.51175548  1
  Cr  Cr59  1  0.50219852  0.74984907  0.50179275  1
  Cr  Cr60  1  0.75061395  0.24891863  0.74936344  1
  Cr  Cr61  1  0.74591150  0.49687130  0.25044418  1
  W  W62  1  0.25063608  0.74810455  0.25044010  1
  W  W63  1  0.49801067  0.74827733  -0.00127172  1
