# generated using pymatgen
data_Zr3Ti4V48Cr5W4
_symmetry_space_group_name_H-M   'P 1'
_cell_length_a   10.48185583
_cell_length_b   10.55572304
_cell_length_c   10.54684070
_cell_angle_alpha   109.59198722
_cell_angle_beta   109.37798012
_cell_angle_gamma   109.30784269
_symmetry_Int_Tables_number   1
_chemical_formula_structural   Zr3Ti4V48Cr5W4
_chemical_formula_sum   'Zr3 Ti4 V48 Cr5 W4'
_cell_volume   899.80933285
_cell_formula_units_Z   1
loop_
 _symmetry_equiv_pos_site_id
 _symmetry_equiv_pos_as_xyz
  1  'x, y, z'
loop_
 _atom_site_type_symbol
 _atom_site_label
 _atom_site_symmetry_multiplicity
 _atom_site_fract_x
 _atom_site_fract_y
 _atom_site_fract_z
 _atom_site_occupancy
  Zr  Zr0  1  0.49846087  0.50193916  0.49716872  1
  Zr  Zr1  1  0.50669307  0.74764773  0.75793449  1
  Zr  Zr2  1  0.75579270  0.51246282  0.75923532  1
  Ti  Ti3  1  -0.00065957  -0.00067481  0.00707737  1
  Ti  Ti4  1  0.49543002  0.00961999  0.75415501  1
  Ti  Ti5  1  0.49742279  0.24440335  0.24425982  1
  Ti  Ti6  1  0.75955741  0.76097615  0.01692718  1
  V  V7  1  -0.00012988  0.00058103  0.49474747  1
  V  V8  1  0.00904004  0.00441275  0.74478869  1
  V  V9  1  0.00158402  0.26099552  0.00460944  1
  V  V10  1  -0.00178440  0.24796342  0.24921098  1
  V  V11  1  -0.00052883  0.24696001  0.50011244  1
  V  V12  1  0.00100600  0.24989126  0.74996494  1
  V  V13  1  0.00403298  0.49964036  0.00210096  1
  V  V14  1  0.00399883  0.50153330  0.24764342  1
  V  V15  1  0.00446404  0.50047974  0.49921211  1
  V  V16  1  0.01293798  0.49720274  0.75282904  1
  V  V17  1  0.02140535  0.75302557  0.02432500  1
  V  V18  1  0.00931799  0.75551712  0.49718700  1
  V  V19  1  0.00926560  0.75146292  0.74819988  1
  V  V20  1  0.24931147  -0.00673424  -0.00991855  1
  V  V21  1  0.24302451  -0.00507775  0.24731736  1
  V  V22  1  0.24154215  -0.01255620  0.49868300  1
  V  V23  1  0.23732053  0.25149561  0.24378546  1
  V  V24  1  0.23250459  0.23397673  0.48866652  1
  V  V25  1  0.24214765  0.23963109  0.74709628  1
  V  V26  1  0.24455370  0.49902136  0.00243075  1
  V  V27  1  0.22425515  0.48968804  0.48310708  1
  V  V28  1  0.24167048  0.49561780  0.75090362  1
  V  V29  1  0.24988039  0.74926857  0.00217706  1
  V  V30  1  0.24478516  0.74361812  0.25034576  1
  V  V31  1  0.24469436  0.74640577  0.49494391  1
  V  V32  1  0.24196533  0.75743416  0.74865606  1
  V  V33  1  0.49910754  0.00428488  0.01011323  1
  V  V34  1  0.49808111  -0.00897625  0.24642288  1
  V  V35  1  0.49550263  -0.00761710  0.49392958  1
  V  V36  1  0.49781042  0.24429898  -0.00783111  1
  V  V37  1  0.49521514  0.24905556  0.74984882  1
  V  V38  1  0.49860222  0.50044223  0.00400377  1
  V  V39  1  0.49292227  0.50244355  0.23530130  1
  V  V40  1  0.46958675  0.46998277  0.75691672  1
  V  V41  1  0.49231905  0.75130735  0.01656497  1
  V  V42  1  0.49887086  0.75079182  0.24783731  1
  V  V43  1  0.49078421  0.75546483  0.48145702  1
  V  V44  1  0.75346418  0.03088308  0.01066763  1
  V  V45  1  0.75517072  -0.00019259  0.25147542  1
  V  V46  1  0.75364852  0.00140658  0.49891309  1
  V  V47  1  0.75643712  0.00908767  0.74850087  1
  V  V48  1  0.75557616  0.24976853  0.24684940  1
  V  V49  1  0.75441720  0.24298911  0.75673544  1
  V  V50  1  0.75927879  0.49750510  0.01524580  1
  V  V51  1  0.77327925  0.50520665  0.49506570  1
  V  V52  1  0.75666616  0.75360560  0.25798664  1
  V  V53  1  0.75597350  0.75696148  0.49178240  1
  V  V54  1  0.77990918  0.78263024  0.73807879  1
  Cr  Cr55  1  0.00471555  0.00113620  0.26294898  1
  Cr  Cr56  1  0.00438105  0.75276189  0.25499317  1
  Cr  Cr57  1  0.24421031  -0.00273395  0.74558839  1
  Cr  Cr58  1  0.24225076  0.49984119  0.24452862  1
  Cr  Cr59  1  0.75626846  0.25665217  0.00467815  1
  W  W60  1  0.24801804  0.24834020  -0.00074606  1
  W  W61  1  0.48818146  0.22951315  0.49505736  1
  W  W62  1  0.75258429  0.24575760  0.49794778  1
  W  W63  1  0.75180461  0.49957227  0.24925439  1
