# generated using pymatgen
data_Zr2Ti2V55CrW4
_symmetry_space_group_name_H-M   'P 1'
_cell_length_a   10.48653471
_cell_length_b   10.49967215
_cell_length_c   10.51730351
_cell_angle_alpha   109.49400530
_cell_angle_beta   109.47480037
_cell_angle_gamma   109.38423198
_symmetry_Int_Tables_number   1
_chemical_formula_structural   Zr2Ti2V55CrW4
_chemical_formula_sum   'Zr2 Ti2 V55 Cr1 W4'
_cell_volume   892.10180919
_cell_formula_units_Z   1
loop_
 _symmetry_equiv_pos_site_id
 _symmetry_equiv_pos_as_xyz
  1  'x, y, z'
loop_
 _atom_site_type_symbol
 _atom_site_label
 _atom_site_symmetry_multiplicity
 _atom_site_fract_x
 _atom_site_fract_y
 _atom_site_fract_z
 _atom_site_occupancy
  Zr  Zr0  1  0.48563369  0.73214814  0.48375529  1
  Zr  Zr1  1  0.75923457  0.00275302  0.76129178  1
  Ti  Ti2  1  -0.00504354  0.75191277  0.75024279  1
  Ti  Ti3  1  0.24380934  0.49254376  0.49274400  1
  V  V4  1  0.00649271  0.00053888  0.00697702  1
  V  V5  1  0.00032175  0.00157136  0.25026431  1
  V  V6  1  0.00011072  0.00145257  0.49582812  1
  V  V7  1  0.01999295  0.01349175  0.75194816  1
  V  V8  1  0.01933005  0.26983323  0.01993610  1
  V  V9  1  -0.00694054  0.24285761  0.24637417  1
  V  V10  1  0.00209267  0.25242402  0.49715107  1
  V  V11  1  -0.00500240  0.50237265  0.00029339  1
  V  V12  1  -0.00237733  0.49796453  0.24763866  1
  V  V13  1  -0.00941052  0.49631177  0.49736421  1
  V  V14  1  -0.00096292  0.49511697  0.74912307  1
  V  V15  1  -0.00042218  0.75214803  0.00729688  1
  V  V16  1  -0.00545939  0.74710521  0.24417109  1
  V  V17  1  -0.00646751  0.74488610  0.48861244  1
  V  V18  1  0.25543334  0.00881700  0.00841027  1
  V  V19  1  0.24808626  0.00154971  0.24775633  1
  V  V20  1  0.25142479  0.00439476  0.75354201  1
  V  V21  1  0.25742393  0.25156424  0.00184260  1
  V  V22  1  0.24985117  0.25039193  0.24981462  1
  V  V23  1  0.24777715  0.24528893  0.49858936  1
  V  V24  1  0.25647185  0.25598252  0.75292590  1
  V  V25  1  0.25287615  0.50031537  0.00445983  1
  V  V26  1  0.25138030  0.49684864  0.75180549  1
  V  V27  1  0.24456242  0.74665358  0.24514522  1
  V  V28  1  0.23194202  0.75183386  0.49419628  1
  V  V29  1  0.50377934  0.00812621  0.00672558  1
  V  V30  1  0.50076149  0.00298785  0.24967444  1
  V  V31  1  0.50097850  0.01303464  0.49760103  1
  V  V32  1  0.49558187  0.01225870  0.75833609  1
  V  V33  1  0.50348182  0.25455449  0.00377313  1
  V  V34  1  0.50035277  0.24807230  0.24708225  1
  V  V35  1  0.49931499  0.24838454  0.49671051  1
  V  V36  1  0.50347788  0.25522503  0.75566872  1
  V  V37  1  0.50185822  0.49788423  0.00046474  1
  V  V38  1  0.49992128  0.49428732  0.24278927  1
  V  V39  1  0.50261065  0.47645013  0.49604440  1
  V  V40  1  0.49677809  0.49419940  0.75135967  1
  V  V41  1  0.50161606  0.74790835  0.00406359  1
  V  V42  1  0.50411375  0.74993166  0.23705420  1
  V  V43  1  0.50606596  0.75380382  0.77112800  1
  V  V44  1  0.75364576  0.00489238  0.02045120  1
  V  V45  1  0.75210488  0.00271661  0.25167409  1
  V  V46  1  0.75087848  0.00151060  0.48706391  1
  V  V47  1  0.74963563  0.25650047  0.00573294  1
  V  V48  1  0.74996968  0.25168701  0.25041176  1
  V  V49  1  0.75023158  0.25139469  0.49610725  1
  V  V50  1  0.74995748  0.26373199  0.75269405  1
  V  V51  1  0.74987655  0.50033990  0.00264181  1
  V  V52  1  0.74762889  0.49691136  0.24562259  1
  V  V53  1  0.74412591  0.49142260  0.49006897  1
  V  V54  1  0.75166598  0.49978935  0.75205699  1
  V  V55  1  0.75220281  0.74834976  0.00629804  1
  V  V56  1  0.74927226  0.74677596  0.24567011  1
  V  V57  1  0.76207828  0.74715868  0.49306327  1
  V  V58  1  0.73804922  0.72889835  0.75484171  1
  Cr  Cr59  1  0.23532038  0.48559272  0.23018204  1
  W  W60  1  0.00262075  0.25325443  0.74940117  1
  W  W61  1  0.24867910  0.00180327  0.49803812  1
  W  W62  1  0.24809530  0.75109780  0.00155941  1
  W  W63  1  0.25110688  0.74799048  0.74844450  1
