# generated using pymatgen
data_Zr2Ti4V47Cr6W5
_symmetry_space_group_name_H-M   'P 1'
_cell_length_a   10.49606988
_cell_length_b   10.53418470
_cell_length_c   10.46882422
_cell_angle_alpha   109.57248998
_cell_angle_beta   109.40930410
_cell_angle_gamma   109.56044003
_symmetry_Int_Tables_number   1
_chemical_formula_structural   Zr2Ti4V47Cr6W5
_chemical_formula_sum   'Zr2 Ti4 V47 Cr6 W5'
_cell_volume   889.63488100
_cell_formula_units_Z   1
loop_
 _symmetry_equiv_pos_site_id
 _symmetry_equiv_pos_as_xyz
  1  'x, y, z'
loop_
 _atom_site_type_symbol
 _atom_site_label
 _atom_site_symmetry_multiplicity
 _atom_site_fract_x
 _atom_site_fract_y
 _atom_site_fract_z
 _atom_site_occupancy
  Zr  Zr0  1  0.00048397  0.25570272  0.24874695  1
  Zr  Zr1  1  0.75315439  0.49162025  0.74570412  1
  Ti  Ti2  1  0.00932830  0.00901636  0.00339472  1
  Ti  Ti3  1  0.49190421  0.49575662  0.74978156  1
  Ti  Ti4  1  0.75345188  0.25602134  0.00137938  1
  Ti  Ti5  1  0.75321648  0.24943122  0.49850375  1
  V  V6  1  0.00279002  -0.00820366  0.25967571  1
  V  V7  1  0.00233866  0.00303942  0.50385468  1
  V  V8  1  0.00479226  -0.00002020  0.74418148  1
  V  V9  1  -0.00197181  0.24955023  0.75188551  1
  V  V10  1  0.00357471  0.49434709  0.00683199  1
  V  V11  1  -0.00648802  0.49742082  0.49282911  1
  V  V12  1  0.01625865  0.50740660  0.75987617  1
  V  V13  1  0.01669997  0.75695355  0.01497748  1
  V  V14  1  0.00400400  0.74352148  0.25467003  1
  V  V15  1  0.00073124  0.75516053  0.50155647  1
  V  V16  1  0.00267204  0.75591127  0.75096488  1
  V  V17  1  0.25760938  0.00288524  -0.00057634  1
  V  V18  1  0.25117011  0.00223674  0.25021938  1
  V  V19  1  0.25063697  -0.00145647  0.50179035  1
  V  V20  1  0.25012371  0.00355805  0.74972163  1
  V  V21  1  0.24602946  0.25067891  0.00302149  1
  V  V22  1  0.24051687  0.24265164  0.49271337  1
  V  V23  1  0.25242297  0.24746854  0.75404038  1
  V  V24  1  0.25655197  0.50400664  0.00739935  1
  V  V25  1  0.24957620  0.50027191  0.24787247  1
  V  V26  1  0.26203147  0.51168346  0.50635619  1
  V  V27  1  0.25279988  0.75221632  0.00539778  1
  V  V28  1  0.25546813  0.75217459  0.25235206  1
  V  V29  1  0.24458483  0.74592158  0.49245161  1
  V  V30  1  0.50188495  0.00788410  0.00364880  1
  V  V31  1  0.49160364  -0.00755626  0.24588366  1
  V  V32  1  0.50096126  0.00056476  0.49983380  1
  V  V33  1  0.49080205  -0.00300028  0.74318516  1
  V  V34  1  0.49165742  0.24967631  -0.00251261  1
  V  V35  1  0.50101881  0.25026348  0.24894185  1
  V  V36  1  0.47896888  0.23017923  0.48700963  1
  V  V37  1  0.50183796  0.24095641  0.75054012  1
  V  V38  1  0.49766583  0.49735895  0.00863162  1
  V  V39  1  0.49972790  0.50266223  0.24765448  1
  V  V40  1  0.48919523  0.49161780  0.48256814  1
  V  V41  1  0.49802935  0.74852237  0.00383853  1
  V  V42  1  0.49777464  0.74851433  0.25128162  1
  V  V43  1  0.49549204  0.74862004  0.49307475  1
  V  V44  1  0.49663903  0.75351334  0.74480835  1
  V  V45  1  0.73253675  -0.01456492  -0.01082780  1
  V  V46  1  0.74626980  -0.01050893  0.49568938  1
  V  V47  1  0.74609967  0.50654800  0.01131191  1
  V  V48  1  0.75078902  0.49682519  0.24975306  1
  V  V49  1  0.75168535  0.51170841  0.48801021  1
  V  V50  1  0.74795221  0.74667417  0.25488249  1
  V  V51  1  0.74940221  0.75043169  0.49758599  1
  V  V52  1  0.74363248  0.75029588  0.73976230  1
  Cr  Cr53  1  0.01070412  0.25825963  -0.00687013  1
  Cr  Cr54  1  0.00318094  0.24417158  0.50635512  1
  Cr  Cr55  1  0.00834683  0.51773731  0.25711335  1
  Cr  Cr56  1  0.26511239  0.25801845  0.25471718  1
  Cr  Cr57  1  0.73769745  0.25044694  0.24801681  1
  Cr  Cr58  1  0.74683112  0.23745480  0.74520308  1
  W  W59  1  0.24419286  0.49534696  0.74916007  1
  W  W60  1  0.24924271  0.75385357  0.74948232  1
  W  W61  1  0.74895178  0.00282382  0.25416534  1
  W  W62  1  0.75218326  0.00457193  0.75137661  1
  W  W63  1  0.75546720  0.75319593  0.00515112  1
