# generated using pymatgen
data_Ti154V309Cr49
_symmetry_space_group_name_H-M   'P 1'
_cell_length_a   20.85389172
_cell_length_b   20.85389172
_cell_length_c   20.85389172
_cell_angle_alpha   109.47122063
_cell_angle_beta   109.47122063
_cell_angle_gamma   109.47122063
_symmetry_Int_Tables_number   1
_chemical_formula_structural   Ti154V309Cr49
_chemical_formula_sum   'Ti154 V309 Cr49'
_cell_volume   6981.35065600
_cell_formula_units_Z   1
loop_
 _symmetry_equiv_pos_site_id
 _symmetry_equiv_pos_as_xyz
  1  'x, y, z'
loop_
 _atom_site_type_symbol
 _atom_site_label
 _atom_site_symmetry_multiplicity
 _atom_site_fract_x
 _atom_site_fract_y
 _atom_site_fract_z
 _atom_site_occupancy
  Ti  Ti0  1  0.00000000  0.00000000  0.00000000  1
  V  V1  1  0.00000000  0.00000000  0.12500000  1
  Ti  Ti2  1  0.00000000  0.00000000  0.25000000  1
  V  V3  1  0.00000000  0.00000000  0.37500000  1
  Ti  Ti4  1  0.00000000  0.00000000  0.50000000  1
  V  V5  1  0.00000000  0.00000000  0.62500000  1
  Ti  Ti6  1  0.00000000  0.00000000  0.75000000  1
  V  V7  1  0.00000000  0.00000000  0.87500000  1
  V  V8  1  0.00000000  0.12500000  0.00000000  1
  Ti  Ti9  1  0.00000000  0.12500000  0.12500000  1
  V  V10  1  0.00000000  0.12500000  0.25000000  1
  Ti  Ti11  1  0.00000000  0.12500000  0.37500000  1
  V  V12  1  0.00000000  0.12500000  0.50000000  1
  Ti  Ti13  1  0.00000000  0.12500000  0.62500000  1
  V  V14  1  0.00000000  0.12500000  0.75000000  1
  Ti  Ti15  1  0.00000000  0.12500000  0.87500000  1
  Ti  Ti16  1  0.00000000  0.25000000  0.00000000  1
  V  V17  1  0.00000000  0.25000000  0.12500000  1
  Ti  Ti18  1  0.00000000  0.25000000  0.25000000  1
  V  V19  1  0.00000000  0.25000000  0.37500000  1
  Ti  Ti20  1  0.00000000  0.25000000  0.50000000  1
  V  V21  1  0.00000000  0.25000000  0.62500000  1
  Ti  Ti22  1  0.00000000  0.25000000  0.75000000  1
  V  V23  1  0.00000000  0.25000000  0.87500000  1
  V  V24  1  0.00000000  0.37500000  0.00000000  1
  Ti  Ti25  1  0.00000000  0.37500000  0.12500000  1
  V  V26  1  0.00000000  0.37500000  0.25000000  1
  Ti  Ti27  1  0.00000000  0.37500000  0.37500000  1
  V  V28  1  0.00000000  0.37500000  0.50000000  1
  Ti  Ti29  1  0.00000000  0.37500000  0.62500000  1
  V  V30  1  0.00000000  0.37500000  0.75000000  1
  Ti  Ti31  1  0.00000000  0.37500000  0.87500000  1
  Ti  Ti32  1  0.00000000  0.50000000  0.00000000  1
  V  V33  1  0.00000000  0.50000000  0.12500000  1
  Ti  Ti34  1  0.00000000  0.50000000  0.25000000  1
  V  V35  1  0.00000000  0.50000000  0.37500000  1
  Ti  Ti36  1  0.00000000  0.50000000  0.50000000  1
  V  V37  1  0.00000000  0.50000000  0.62500000  1
  Ti  Ti38  1  0.00000000  0.50000000  0.75000000  1
  V  V39  1  0.00000000  0.50000000  0.87500000  1
  V  V40  1  0.00000000  0.62500000  0.00000000  1
  Ti  Ti41  1  0.00000000  0.62500000  0.12500000  1
  V  V42  1  0.00000000  0.62500000  0.25000000  1
  Ti  Ti43  1  0.00000000  0.62500000  0.37500000  1
  V  V44  1  0.00000000  0.62500000  0.50000000  1
  Ti  Ti45  1  0.00000000  0.62500000  0.62500000  1
  V  V46  1  0.00000000  0.62500000  0.75000000  1
  Ti  Ti47  1  0.00000000  0.62500000  0.87500000  1
  Ti  Ti48  1  0.00000000  0.75000000  0.00000000  1
  V  V49  1  0.00000000  0.75000000  0.12500000  1
  Ti  Ti50  1  0.00000000  0.75000000  0.25000000  1
  V  V51  1  0.00000000  0.75000000  0.37500000  1
  Ti  Ti52  1  0.00000000  0.75000000  0.50000000  1
  V  V53  1  0.00000000  0.75000000  0.62500000  1
  Ti  Ti54  1  0.00000000  0.75000000  0.75000000  1
  V  V55  1  0.00000000  0.75000000  0.87500000  1
  V  V56  1  0.00000000  0.87500000  0.00000000  1
  Ti  Ti57  1  0.00000000  0.87500000  0.12500000  1
  V  V58  1  0.00000000  0.87500000  0.25000000  1
  Ti  Ti59  1  0.00000000  0.87500000  0.37500000  1
  V  V60  1  0.00000000  0.87500000  0.50000000  1
  Cr  Cr61  1  0.00000000  0.87500000  0.62500000  1
  V  V62  1  0.00000000  0.87500000  0.75000000  1
  Ti  Ti63  1  0.00000000  0.87500000  0.87500000  1
  V  V64  1  0.12500000  0.00000000  0.00000000  1
  Ti  Ti65  1  0.12500000  0.00000000  0.12500000  1
  V  V66  1  0.12500000  0.00000000  0.25000000  1
  Ti  Ti67  1  0.12500000  0.00000000  0.37500000  1
  V  V68  1  0.12500000  0.00000000  0.50000000  1
  Ti  Ti69  1  0.12500000  0.00000000  0.62500000  1
  V  V70  1  0.12500000  0.00000000  0.75000000  1
  Ti  Ti71  1  0.12500000  0.00000000  0.87500000  1
  Ti  Ti72  1  0.12500000  0.12500000  0.00000000  1
  V  V73  1  0.12500000  0.12500000  0.12500000  1
  Ti  Ti74  1  0.12500000  0.12500000  0.25000000  1
  V  V75  1  0.12500000  0.12500000  0.37500000  1
  Cr  Cr76  1  0.12500000  0.12500000  0.50000000  1
  V  V77  1  0.12500000  0.12500000  0.62500000  1
  Ti  Ti78  1  0.12500000  0.12500000  0.75000000  1
  V  V79  1  0.12500000  0.12500000  0.87500000  1
  V  V80  1  0.12500000  0.25000000  0.00000000  1
  Ti  Ti81  1  0.12500000  0.25000000  0.12500000  1
  V  V82  1  0.12500000  0.25000000  0.25000000  1
  Ti  Ti83  1  0.12500000  0.25000000  0.37500000  1
  V  V84  1  0.12500000  0.25000000  0.50000000  1
  Ti  Ti85  1  0.12500000  0.25000000  0.62500000  1
  V  V86  1  0.12500000  0.25000000  0.75000000  1
  Ti  Ti87  1  0.12500000  0.25000000  0.87500000  1
  Ti  Ti88  1  0.12500000  0.37500000  0.00000000  1
  V  V89  1  0.12500000  0.37500000  0.12500000  1
  Ti  Ti90  1  0.12500000  0.37500000  0.25000000  1
  V  V91  1  0.12500000  0.37500000  0.37500000  1
  Ti  Ti92  1  0.12500000  0.37500000  0.50000000  1
  V  V93  1  0.12500000  0.37500000  0.62500000  1
  Ti  Ti94  1  0.12500000  0.37500000  0.75000000  1
  V  V95  1  0.12500000  0.37500000  0.87500000  1
  V  V96  1  0.12500000  0.50000000  0.00000000  1
  Ti  Ti97  1  0.12500000  0.50000000  0.12500000  1
  V  V98  1  0.12500000  0.50000000  0.25000000  1
  Ti  Ti99  1  0.12500000  0.50000000  0.37500000  1
  V  V100  1  0.12500000  0.50000000  0.50000000  1
  Ti  Ti101  1  0.12500000  0.50000000  0.62500000  1
  V  V102  1  0.12500000  0.50000000  0.75000000  1
  Ti  Ti103  1  0.12500000  0.50000000  0.87500000  1
  Ti  Ti104  1  0.12500000  0.62500000  0.00000000  1
  V  V105  1  0.12500000  0.62500000  0.12500000  1
  Ti  Ti106  1  0.12500000  0.62500000  0.25000000  1
  V  V107  1  0.12500000  0.62500000  0.37500000  1
  Ti  Ti108  1  0.12500000  0.62500000  0.50000000  1
  V  V109  1  0.12500000  0.62500000  0.62500000  1
  Ti  Ti110  1  0.12500000  0.62500000  0.75000000  1
  V  V111  1  0.12500000  0.62500000  0.87500000  1
  V  V112  1  0.12500000  0.75000000  0.00000000  1
  Ti  Ti113  1  0.12500000  0.75000000  0.12500000  1
  V  V114  1  0.12500000  0.75000000  0.25000000  1
  Ti  Ti115  1  0.12500000  0.75000000  0.37500000  1
  V  V116  1  0.12500000  0.75000000  0.50000000  1
  Ti  Ti117  1  0.12500000  0.75000000  0.62500000  1
  V  V118  1  0.12500000  0.75000000  0.75000000  1
  Ti  Ti119  1  0.12500000  0.75000000  0.87500000  1
  Ti  Ti120  1  0.12500000  0.87500000  0.00000000  1
  V  V121  1  0.12500000  0.87500000  0.12500000  1
  Ti  Ti122  1  0.12500000  0.87500000  0.25000000  1
  V  V123  1  0.12500000  0.87500000  0.37500000  1
  Ti  Ti124  1  0.12500000  0.87500000  0.50000000  1
  V  V125  1  0.12500000  0.87500000  0.62500000  1
  Ti  Ti126  1  0.12500000  0.87500000  0.75000000  1
  V  V127  1  0.12500000  0.87500000  0.87500000  1
  Ti  Ti128  1  0.25000000  0.00000000  0.00000000  1
  V  V129  1  0.25000000  0.00000000  0.12500000  1
  Ti  Ti130  1  0.25000000  0.00000000  0.25000000  1
  V  V131  1  0.25000000  0.00000000  0.37500000  1
  Ti  Ti132  1  0.25000000  0.00000000  0.50000000  1
  V  V133  1  0.25000000  0.00000000  0.62500000  1
  Ti  Ti134  1  0.25000000  0.00000000  0.75000000  1
  V  V135  1  0.25000000  0.00000000  0.87500000  1
  V  V136  1  0.25000000  0.12500000  0.00000000  1
  Ti  Ti137  1  0.25000000  0.12500000  0.12500000  1
  V  V138  1  0.25000000  0.12500000  0.25000000  1
  Ti  Ti139  1  0.25000000  0.12500000  0.37500000  1
  V  V140  1  0.25000000  0.12500000  0.50000000  1
  Ti  Ti141  1  0.25000000  0.12500000  0.62500000  1
  V  V142  1  0.25000000  0.12500000  0.75000000  1
  Ti  Ti143  1  0.25000000  0.12500000  0.87500000  1
  Ti  Ti144  1  0.25000000  0.25000000  0.00000000  1
  V  V145  1  0.25000000  0.25000000  0.12500000  1
  Ti  Ti146  1  0.25000000  0.25000000  0.25000000  1
  V  V147  1  0.25000000  0.25000000  0.37500000  1
  Cr  Cr148  1  0.25000000  0.25000000  0.50000000  1
  V  V149  1  0.25000000  0.25000000  0.62500000  1
  Cr  Cr150  1  0.25000000  0.25000000  0.75000000  1
  V  V151  1  0.25000000  0.25000000  0.87500000  1
  V  V152  1  0.25000000  0.37500000  0.00000000  1
  Cr  Cr153  1  0.25000000  0.37500000  0.12500000  1
  V  V154  1  0.25000000  0.37500000  0.25000000  1
  Cr  Cr155  1  0.25000000  0.37500000  0.37500000  1
  V  V156  1  0.25000000  0.37500000  0.50000000  1
  Cr  Cr157  1  0.25000000  0.37500000  0.62500000  1
  V  V158  1  0.25000000  0.37500000  0.75000000  1
  Cr  Cr159  1  0.25000000  0.37500000  0.87500000  1
  Cr  Cr160  1  0.25000000  0.50000000  0.00000000  1
  V  V161  1  0.25000000  0.50000000  0.12500000  1
  Cr  Cr162  1  0.25000000  0.50000000  0.25000000  1
  V  V163  1  0.25000000  0.50000000  0.37500000  1
  Cr  Cr164  1  0.25000000  0.50000000  0.50000000  1
  V  V165  1  0.25000000  0.50000000  0.62500000  1
  Cr  Cr166  1  0.25000000  0.50000000  0.75000000  1
  V  V167  1  0.25000000  0.50000000  0.87500000  1
  V  V168  1  0.25000000  0.62500000  0.00000000  1
  Cr  Cr169  1  0.25000000  0.62500000  0.12500000  1
  V  V170  1  0.25000000  0.62500000  0.25000000  1
  Ti  Ti171  1  0.25000000  0.62500000  0.37500000  1
  V  V172  1  0.25000000  0.62500000  0.50000000  1
  Ti  Ti173  1  0.25000000  0.62500000  0.62500000  1
  V  V174  1  0.25000000  0.62500000  0.75000000  1
  Ti  Ti175  1  0.25000000  0.62500000  0.87500000  1
  Ti  Ti176  1  0.25000000  0.75000000  0.00000000  1
  V  V177  1  0.25000000  0.75000000  0.12500000  1
  Ti  Ti178  1  0.25000000  0.75000000  0.25000000  1
  V  V179  1  0.25000000  0.75000000  0.37500000  1
  Ti  Ti180  1  0.25000000  0.75000000  0.50000000  1
  V  V181  1  0.25000000  0.75000000  0.62500000  1
  Ti  Ti182  1  0.25000000  0.75000000  0.75000000  1
  V  V183  1  0.25000000  0.75000000  0.87500000  1
  V  V184  1  0.25000000  0.87500000  0.00000000  1
  Ti  Ti185  1  0.25000000  0.87500000  0.12500000  1
  V  V186  1  0.25000000  0.87500000  0.25000000  1
  Ti  Ti187  1  0.25000000  0.87500000  0.37500000  1
  V  V188  1  0.25000000  0.87500000  0.50000000  1
  Ti  Ti189  1  0.25000000  0.87500000  0.62500000  1
  V  V190  1  0.25000000  0.87500000  0.75000000  1
  Ti  Ti191  1  0.25000000  0.87500000  0.87500000  1
  V  V192  1  0.37500000  0.00000000  0.00000000  1
  Ti  Ti193  1  0.37500000  0.00000000  0.12500000  1
  V  V194  1  0.37500000  0.00000000  0.25000000  1
  Ti  Ti195  1  0.37500000  0.00000000  0.37500000  1
  V  V196  1  0.37500000  0.00000000  0.50000000  1
  Ti  Ti197  1  0.37500000  0.00000000  0.62500000  1
  V  V198  1  0.37500000  0.00000000  0.75000000  1
  Ti  Ti199  1  0.37500000  0.00000000  0.87500000  1
  Ti  Ti200  1  0.37500000  0.12500000  0.00000000  1
  V  V201  1  0.37500000  0.12500000  0.12500000  1
  Ti  Ti202  1  0.37500000  0.12500000  0.25000000  1
  V  V203  1  0.37500000  0.12500000  0.37500000  1
  Ti  Ti204  1  0.37500000  0.12500000  0.50000000  1
  V  V205  1  0.37500000  0.12500000  0.62500000  1
  Ti  Ti206  1  0.37500000  0.12500000  0.75000000  1
  V  V207  1  0.37500000  0.12500000  0.87500000  1
  V  V208  1  0.37500000  0.25000000  0.00000000  1
  Cr  Cr209  1  0.37500000  0.25000000  0.12500000  1
  V  V210  1  0.37500000  0.25000000  0.25000000  1
  Ti  Ti211  1  0.37500000  0.25000000  0.37500000  1
  V  V212  1  0.37500000  0.25000000  0.50000000  1
  Cr  Cr213  1  0.37500000  0.25000000  0.62500000  1
  V  V214  1  0.37500000  0.25000000  0.75000000  1
  Cr  Cr215  1  0.37500000  0.25000000  0.87500000  1
  V  V216  1  0.37500000  0.37500000  0.00000000  1
  V  V217  1  0.37500000  0.37500000  0.12500000  1
  Cr  Cr218  1  0.37500000  0.37500000  0.25000000  1
  V  V219  1  0.37500000  0.37500000  0.37500000  1
  V  V220  1  0.37500000  0.37500000  0.50000000  1
  V  V221  1  0.37500000  0.37500000  0.62500000  1
  V  V222  1  0.37500000  0.37500000  0.75000000  1
  V  V223  1  0.37500000  0.37500000  0.87500000  1
  V  V224  1  0.37500000  0.50000000  0.00000000  1
  V  V225  1  0.37500000  0.50000000  0.12500000  1
  V  V226  1  0.37500000  0.50000000  0.25000000  1
  V  V227  1  0.37500000  0.50000000  0.37500000  1
  V  V228  1  0.37500000  0.50000000  0.50000000  1
  V  V229  1  0.37500000  0.50000000  0.62500000  1
  V  V230  1  0.37500000  0.50000000  0.75000000  1
  V  V231  1  0.37500000  0.50000000  0.87500000  1
  V  V232  1  0.37500000  0.62500000  0.00000000  1
  V  V233  1  0.37500000  0.62500000  0.12500000  1
  V  V234  1  0.37500000  0.62500000  0.25000000  1
  V  V235  1  0.37500000  0.62500000  0.37500000  1
  Cr  Cr236  1  0.37500000  0.62500000  0.50000000  1
  V  V237  1  0.37500000  0.62500000  0.62500000  1
  Cr  Cr238  1  0.37500000  0.62500000  0.75000000  1
  V  V239  1  0.37500000  0.62500000  0.87500000  1
  V  V240  1  0.37500000  0.75000000  0.00000000  1
  V  V241  1  0.37500000  0.75000000  0.12500000  1
  V  V242  1  0.37500000  0.75000000  0.25000000  1
  Ti  Ti243  1  0.37500000  0.75000000  0.37500000  1
  V  V244  1  0.37500000  0.75000000  0.50000000  1
  Ti  Ti245  1  0.37500000  0.75000000  0.62500000  1
  V  V246  1  0.37500000  0.75000000  0.75000000  1
  Ti  Ti247  1  0.37500000  0.75000000  0.87500000  1
  Ti  Ti248  1  0.37500000  0.87500000  0.00000000  1
  V  V249  1  0.37500000  0.87500000  0.12500000  1
  Ti  Ti250  1  0.37500000  0.87500000  0.25000000  1
  V  V251  1  0.37500000  0.87500000  0.37500000  1
  Ti  Ti252  1  0.37500000  0.87500000  0.50000000  1
  V  V253  1  0.37500000  0.87500000  0.62500000  1
  Ti  Ti254  1  0.37500000  0.87500000  0.75000000  1
  V  V255  1  0.37500000  0.87500000  0.87500000  1
  Ti  Ti256  1  0.50000000  0.00000000  0.00000000  1
  V  V257  1  0.50000000  0.00000000  0.12500000  1
  Ti  Ti258  1  0.50000000  0.00000000  0.25000000  1
  V  V259  1  0.50000000  0.00000000  0.37500000  1
  Ti  Ti260  1  0.50000000  0.00000000  0.50000000  1
  V  V261  1  0.50000000  0.00000000  0.62500000  1
  Ti  Ti262  1  0.50000000  0.00000000  0.75000000  1
  V  V263  1  0.50000000  0.00000000  0.87500000  1
  V  V264  1  0.50000000  0.12500000  0.00000000  1
  Ti  Ti265  1  0.50000000  0.12500000  0.12500000  1
  V  V266  1  0.50000000  0.12500000  0.25000000  1
  Ti  Ti267  1  0.50000000  0.12500000  0.37500000  1
  V  V268  1  0.50000000  0.12500000  0.50000000  1
  Ti  Ti269  1  0.50000000  0.12500000  0.62500000  1
  V  V270  1  0.50000000  0.12500000  0.75000000  1
  Ti  Ti271  1  0.50000000  0.12500000  0.87500000  1
  Cr  Cr272  1  0.50000000  0.25000000  0.00000000  1
  V  V273  1  0.50000000  0.25000000  0.12500000  1
  Ti  Ti274  1  0.50000000  0.25000000  0.25000000  1
  V  V275  1  0.50000000  0.25000000  0.37500000  1
  Cr  Cr276  1  0.50000000  0.25000000  0.50000000  1
  V  V277  1  0.50000000  0.25000000  0.62500000  1
  Cr  Cr278  1  0.50000000  0.25000000  0.75000000  1
  V  V279  1  0.50000000  0.25000000  0.87500000  1
  V  V280  1  0.50000000  0.37500000  0.00000000  1
  V  V281  1  0.50000000  0.37500000  0.12500000  1
  V  V282  1  0.50000000  0.37500000  0.25000000  1
  Cr  Cr283  1  0.50000000  0.37500000  0.37500000  1
  V  V284  1  0.50000000  0.37500000  0.50000000  1
  V  V285  1  0.50000000  0.37500000  0.62500000  1
  V  V286  1  0.50000000  0.37500000  0.75000000  1
  V  V287  1  0.50000000  0.37500000  0.87500000  1
  V  V288  1  0.50000000  0.50000000  0.00000000  1
  V  V289  1  0.50000000  0.50000000  0.12500000  1
  V  V290  1  0.50000000  0.50000000  0.25000000  1
  V  V291  1  0.50000000  0.50000000  0.37500000  1
  V  V292  1  0.50000000  0.50000000  0.50000000  1
  V  V293  1  0.50000000  0.50000000  0.62500000  1
  V  V294  1  0.50000000  0.50000000  0.75000000  1
  V  V295  1  0.50000000  0.50000000  0.87500000  1
  V  V296  1  0.50000000  0.62500000  0.00000000  1
  V  V297  1  0.50000000  0.62500000  0.12500000  1
  V  V298  1  0.50000000  0.62500000  0.25000000  1
  V  V299  1  0.50000000  0.62500000  0.37500000  1
  V  V300  1  0.50000000  0.62500000  0.50000000  1
  V  V301  1  0.50000000  0.62500000  0.62500000  1
  V  V302  1  0.50000000  0.62500000  0.75000000  1
  V  V303  1  0.50000000  0.62500000  0.87500000  1
  Cr  Cr304  1  0.50000000  0.75000000  0.00000000  1
  V  V305  1  0.50000000  0.75000000  0.12500000  1
  V  V306  1  0.50000000  0.75000000  0.25000000  1
  V  V307  1  0.50000000  0.75000000  0.37500000  1
  V  V308  1  0.50000000  0.75000000  0.50000000  1
  V  V309  1  0.50000000  0.75000000  0.62500000  1
  Cr  Cr310  1  0.50000000  0.75000000  0.75000000  1
  V  V311  1  0.50000000  0.75000000  0.87500000  1
  V  V312  1  0.50000000  0.87500000  0.00000000  1
  Cr  Cr313  1  0.50000000  0.87500000  0.12500000  1
  V  V314  1  0.50000000  0.87500000  0.25000000  1
  Cr  Cr315  1  0.50000000  0.87500000  0.37500000  1
  V  V316  1  0.50000000  0.87500000  0.50000000  1
  Ti  Ti317  1  0.50000000  0.87500000  0.62500000  1
  V  V318  1  0.50000000  0.87500000  0.75000000  1
  Ti  Ti319  1  0.50000000  0.87500000  0.87500000  1
  V  V320  1  0.62500000  0.00000000  0.00000000  1
  Ti  Ti321  1  0.62500000  0.00000000  0.12500000  1
  V  V322  1  0.62500000  0.00000000  0.25000000  1
  Ti  Ti323  1  0.62500000  0.00000000  0.37500000  1
  V  V324  1  0.62500000  0.00000000  0.50000000  1
  Ti  Ti325  1  0.62500000  0.00000000  0.62500000  1
  V  V326  1  0.62500000  0.00000000  0.75000000  1
  Ti  Ti327  1  0.62500000  0.00000000  0.87500000  1
  Ti  Ti328  1  0.62500000  0.12500000  0.00000000  1
  V  V329  1  0.62500000  0.12500000  0.12500000  1
  Ti  Ti330  1  0.62500000  0.12500000  0.25000000  1
  V  V331  1  0.62500000  0.12500000  0.37500000  1
  Ti  Ti332  1  0.62500000  0.12500000  0.50000000  1
  V  V333  1  0.62500000  0.12500000  0.62500000  1
  Ti  Ti334  1  0.62500000  0.12500000  0.75000000  1
  V  V335  1  0.62500000  0.12500000  0.87500000  1
  V  V336  1  0.62500000  0.25000000  0.00000000  1
  Ti  Ti337  1  0.62500000  0.25000000  0.12500000  1
  V  V338  1  0.62500000  0.25000000  0.25000000  1
  Ti  Ti339  1  0.62500000  0.25000000  0.37500000  1
  V  V340  1  0.62500000  0.25000000  0.50000000  1
  Ti  Ti341  1  0.62500000  0.25000000  0.62500000  1
  V  V342  1  0.62500000  0.25000000  0.75000000  1
  Ti  Ti343  1  0.62500000  0.25000000  0.87500000  1
  Cr  Cr344  1  0.62500000  0.37500000  0.00000000  1
  V  V345  1  0.62500000  0.37500000  0.12500000  1
  Cr  Cr346  1  0.62500000  0.37500000  0.25000000  1
  V  V347  1  0.62500000  0.37500000  0.37500000  1
  V  V348  1  0.62500000  0.37500000  0.50000000  1
  V  V349  1  0.62500000  0.37500000  0.62500000  1
  V  V350  1  0.62500000  0.37500000  0.75000000  1
  V  V351  1  0.62500000  0.37500000  0.87500000  1
  V  V352  1  0.62500000  0.50000000  0.00000000  1
  V  V353  1  0.62500000  0.50000000  0.12500000  1
  V  V354  1  0.62500000  0.50000000  0.25000000  1
  V  V355  1  0.62500000  0.50000000  0.37500000  1
  V  V356  1  0.62500000  0.50000000  0.50000000  1
  V  V357  1  0.62500000  0.50000000  0.62500000  1
  V  V358  1  0.62500000  0.50000000  0.75000000  1
  V  V359  1  0.62500000  0.50000000  0.87500000  1
  V  V360  1  0.62500000  0.62500000  0.00000000  1
  V  V361  1  0.62500000  0.62500000  0.12500000  1
  V  V362  1  0.62500000  0.62500000  0.25000000  1
  V  V363  1  0.62500000  0.62500000  0.37500000  1
  V  V364  1  0.62500000  0.62500000  0.50000000  1
  V  V365  1  0.62500000  0.62500000  0.62500000  1
  V  V366  1  0.62500000  0.62500000  0.75000000  1
  V  V367  1  0.62500000  0.62500000  0.87500000  1
  V  V368  1  0.62500000  0.75000000  0.00000000  1
  V  V369  1  0.62500000  0.75000000  0.12500000  1
  V  V370  1  0.62500000  0.75000000  0.25000000  1
  V  V371  1  0.62500000  0.75000000  0.37500000  1
  V  V372  1  0.62500000  0.75000000  0.50000000  1
  V  V373  1  0.62500000  0.75000000  0.62500000  1
  V  V374  1  0.62500000  0.75000000  0.75000000  1
  Cr  Cr375  1  0.62500000  0.75000000  0.87500000  1
  Ti  Ti376  1  0.62500000  0.87500000  0.00000000  1
  V  V377  1  0.62500000  0.87500000  0.12500000  1
  V  V378  1  0.62500000  0.87500000  0.25000000  1
  V  V379  1  0.62500000  0.87500000  0.37500000  1
  V  V380  1  0.62500000  0.87500000  0.50000000  1
  V  V381  1  0.62500000  0.87500000  0.62500000  1
  Ti  Ti382  1  0.62500000  0.87500000  0.75000000  1
  V  V383  1  0.62500000  0.87500000  0.87500000  1
  Ti  Ti384  1  0.75000000  0.00000000  0.00000000  1
  V  V385  1  0.75000000  0.00000000  0.12500000  1
  Cr  Cr386  1  0.75000000  0.00000000  0.25000000  1
  V  V387  1  0.75000000  0.00000000  0.37500000  1
  Cr  Cr388  1  0.75000000  0.00000000  0.50000000  1
  V  V389  1  0.75000000  0.00000000  0.62500000  1
  Cr  Cr390  1  0.75000000  0.00000000  0.75000000  1
  V  V391  1  0.75000000  0.00000000  0.87500000  1
  V  V392  1  0.75000000  0.12500000  0.00000000  1
  Ti  Ti393  1  0.75000000  0.12500000  0.12500000  1
  V  V394  1  0.75000000  0.12500000  0.25000000  1
  Ti  Ti395  1  0.75000000  0.12500000  0.37500000  1
  V  V396  1  0.75000000  0.12500000  0.50000000  1
  Ti  Ti397  1  0.75000000  0.12500000  0.62500000  1
  V  V398  1  0.75000000  0.12500000  0.75000000  1
  Ti  Ti399  1  0.75000000  0.12500000  0.87500000  1
  Ti  Ti400  1  0.75000000  0.25000000  0.00000000  1
  V  V401  1  0.75000000  0.25000000  0.12500000  1
  Ti  Ti402  1  0.75000000  0.25000000  0.25000000  1
  V  V403  1  0.75000000  0.25000000  0.37500000  1
  Ti  Ti404  1  0.75000000  0.25000000  0.50000000  1
  V  V405  1  0.75000000  0.25000000  0.62500000  1
  Ti  Ti406  1  0.75000000  0.25000000  0.75000000  1
  V  V407  1  0.75000000  0.25000000  0.87500000  1
  V  V408  1  0.75000000  0.37500000  0.00000000  1
  Ti  Ti409  1  0.75000000  0.37500000  0.12500000  1
  V  V410  1  0.75000000  0.37500000  0.25000000  1
  Ti  Ti411  1  0.75000000  0.37500000  0.37500000  1
  V  V412  1  0.75000000  0.37500000  0.50000000  1
  Cr  Cr413  1  0.75000000  0.37500000  0.62500000  1
  V  V414  1  0.75000000  0.37500000  0.75000000  1
  Ti  Ti415  1  0.75000000  0.37500000  0.87500000  1
  Cr  Cr416  1  0.75000000  0.50000000  0.00000000  1
  V  V417  1  0.75000000  0.50000000  0.12500000  1
  Cr  Cr418  1  0.75000000  0.50000000  0.25000000  1
  V  V419  1  0.75000000  0.50000000  0.37500000  1
  Cr  Cr420  1  0.75000000  0.50000000  0.50000000  1
  V  V421  1  0.75000000  0.50000000  0.62500000  1
  V  V422  1  0.75000000  0.50000000  0.75000000  1
  V  V423  1  0.75000000  0.50000000  0.87500000  1
  V  V424  1  0.75000000  0.62500000  0.00000000  1
  V  V425  1  0.75000000  0.62500000  0.12500000  1
  V  V426  1  0.75000000  0.62500000  0.25000000  1
  V  V427  1  0.75000000  0.62500000  0.37500000  1
  V  V428  1  0.75000000  0.62500000  0.50000000  1
  V  V429  1  0.75000000  0.62500000  0.62500000  1
  V  V430  1  0.75000000  0.62500000  0.75000000  1
  V  V431  1  0.75000000  0.62500000  0.87500000  1
  V  V432  1  0.75000000  0.75000000  0.00000000  1
  V  V433  1  0.75000000  0.75000000  0.12500000  1
  V  V434  1  0.75000000  0.75000000  0.25000000  1
  V  V435  1  0.75000000  0.75000000  0.37500000  1
  V  V436  1  0.75000000  0.75000000  0.50000000  1
  V  V437  1  0.75000000  0.75000000  0.62500000  1
  V  V438  1  0.75000000  0.75000000  0.75000000  1
  V  V439  1  0.75000000  0.75000000  0.87500000  1
  V  V440  1  0.75000000  0.87500000  0.00000000  1
  V  V441  1  0.75000000  0.87500000  0.12500000  1
  V  V442  1  0.75000000  0.87500000  0.25000000  1
  V  V443  1  0.75000000  0.87500000  0.37500000  1
  V  V444  1  0.75000000  0.87500000  0.50000000  1
  V  V445  1  0.75000000  0.87500000  0.62500000  1
  V  V446  1  0.75000000  0.87500000  0.75000000  1
  Cr  Cr447  1  0.75000000  0.87500000  0.87500000  1
  V  V448  1  0.87500000  0.00000000  0.00000000  1
  Ti  Ti449  1  0.87500000  0.00000000  0.12500000  1
  V  V450  1  0.87500000  0.00000000  0.25000000  1
  Cr  Cr451  1  0.87500000  0.00000000  0.37500000  1
  V  V452  1  0.87500000  0.00000000  0.50000000  1
  Cr  Cr453  1  0.87500000  0.00000000  0.62500000  1
  V  V454  1  0.87500000  0.00000000  0.75000000  1
  Ti  Ti455  1  0.87500000  0.00000000  0.87500000  1
  Ti  Ti456  1  0.87500000  0.12500000  0.00000000  1
  V  V457  1  0.87500000  0.12500000  0.12500000  1
  Ti  Ti458  1  0.87500000  0.12500000  0.25000000  1
  V  V459  1  0.87500000  0.12500000  0.37500000  1
  Ti  Ti460  1  0.87500000  0.12500000  0.50000000  1
  V  V461  1  0.87500000  0.12500000  0.62500000  1
  Ti  Ti462  1  0.87500000  0.12500000  0.75000000  1
  V  V463  1  0.87500000  0.12500000  0.87500000  1
  V  V464  1  0.87500000  0.25000000  0.00000000  1
  Cr  Cr465  1  0.87500000  0.25000000  0.12500000  1
  V  V466  1  0.87500000  0.25000000  0.25000000  1
  Ti  Ti467  1  0.87500000  0.25000000  0.37500000  1
  V  V468  1  0.87500000  0.25000000  0.50000000  1
  Ti  Ti469  1  0.87500000  0.25000000  0.62500000  1
  V  V470  1  0.87500000  0.25000000  0.75000000  1
  Ti  Ti471  1  0.87500000  0.25000000  0.87500000  1
  Ti  Ti472  1  0.87500000  0.37500000  0.00000000  1
  V  V473  1  0.87500000  0.37500000  0.12500000  1
  Ti  Ti474  1  0.87500000  0.37500000  0.25000000  1
  V  V475  1  0.87500000  0.37500000  0.37500000  1
  Ti  Ti476  1  0.87500000  0.37500000  0.50000000  1
  V  V477  1  0.87500000  0.37500000  0.62500000  1
  Ti  Ti478  1  0.87500000  0.37500000  0.75000000  1
  V  V479  1  0.87500000  0.37500000  0.87500000  1
  V  V480  1  0.87500000  0.50000000  0.00000000  1
  Ti  Ti481  1  0.87500000  0.50000000  0.12500000  1
  V  V482  1  0.87500000  0.50000000  0.25000000  1
  Ti  Ti483  1  0.87500000  0.50000000  0.37500000  1
  V  V484  1  0.87500000  0.50000000  0.50000000  1
  Ti  Ti485  1  0.87500000  0.50000000  0.62500000  1
  V  V486  1  0.87500000  0.50000000  0.75000000  1
  Ti  Ti487  1  0.87500000  0.50000000  0.87500000  1
  Cr  Cr488  1  0.87500000  0.62500000  0.00000000  1
  V  V489  1  0.87500000  0.62500000  0.12500000  1
  Ti  Ti490  1  0.87500000  0.62500000  0.25000000  1
  V  V491  1  0.87500000  0.62500000  0.37500000  1
  Cr  Cr492  1  0.87500000  0.62500000  0.50000000  1
  V  V493  1  0.87500000  0.62500000  0.62500000  1
  Cr  Cr494  1  0.87500000  0.62500000  0.75000000  1
  V  V495  1  0.87500000  0.62500000  0.87500000  1
  V  V496  1  0.87500000  0.75000000  0.00000000  1
  Cr  Cr497  1  0.87500000  0.75000000  0.12500000  1
  V  V498  1  0.87500000  0.75000000  0.25000000  1
  V  V499  1  0.87500000  0.75000000  0.37500000  1
  V  V500  1  0.87500000  0.75000000  0.50000000  1
  V  V501  1  0.87500000  0.75000000  0.62500000  1
  V  V502  1  0.87500000  0.75000000  0.75000000  1
  Cr  Cr503  1  0.87500000  0.75000000  0.87500000  1
  Cr  Cr504  1  0.87500000  0.87500000  0.00000000  1
  V  V505  1  0.87500000  0.87500000  0.12500000  1
  Cr  Cr506  1  0.87500000  0.87500000  0.25000000  1
  V  V507  1  0.87500000  0.87500000  0.37500000  1
  V  V508  1  0.87500000  0.87500000  0.50000000  1
  V  V509  1  0.87500000  0.87500000  0.62500000  1
  Cr  Cr510  1  0.87500000  0.87500000  0.75000000  1
  V  V511  1  0.87500000  0.87500000  0.87500000  1
