# generated using pymatgen
data_Ti49V309Cr154
_symmetry_space_group_name_H-M   'P 1'
_cell_length_a   20.85389172
_cell_length_b   20.85389172
_cell_length_c   20.85389172
_cell_angle_alpha   109.47122063
_cell_angle_beta   109.47122063
_cell_angle_gamma   109.47122063
_symmetry_Int_Tables_number   1
_chemical_formula_structural   Ti49V309Cr154
_chemical_formula_sum   'Ti49 V309 Cr154'
_cell_volume   6981.35065600
_cell_formula_units_Z   1
loop_
 _symmetry_equiv_pos_site_id
 _symmetry_equiv_pos_as_xyz
  1  'x, y, z'
loop_
 _atom_site_type_symbol
 _atom_site_label
 _atom_site_symmetry_multiplicity
 _atom_site_fract_x
 _atom_site_fract_y
 _atom_site_fract_z
 _atom_site_occupancy
  Cr  Cr0  1  0.00000000  0.00000000  0.00000000  1
  V  V1  1  0.00000000  0.00000000  0.12500000  1
  V  V2  1  0.00000000  0.00000000  0.25000000  1
  V  V3  1  0.00000000  0.00000000  0.37500000  1
  Cr  Cr4  1  0.00000000  0.00000000  0.50000000  1
  V  V5  1  0.00000000  0.00000000  0.62500000  1
  V  V6  1  0.00000000  0.00000000  0.75000000  1
  V  V7  1  0.00000000  0.00000000  0.87500000  1
  Cr  Cr8  1  0.00000000  0.12500000  0.00000000  1
  V  V9  1  0.00000000  0.12500000  0.12500000  1
  Cr  Cr10  1  0.00000000  0.12500000  0.25000000  1
  Cr  Cr11  1  0.00000000  0.12500000  0.37500000  1
  V  V12  1  0.00000000  0.12500000  0.50000000  1
  Cr  Cr13  1  0.00000000  0.12500000  0.62500000  1
  V  V14  1  0.00000000  0.12500000  0.75000000  1
  V  V15  1  0.00000000  0.12500000  0.87500000  1
  Cr  Cr16  1  0.00000000  0.25000000  0.00000000  1
  V  V17  1  0.00000000  0.25000000  0.12500000  1
  V  V18  1  0.00000000  0.25000000  0.25000000  1
  V  V19  1  0.00000000  0.25000000  0.37500000  1
  V  V20  1  0.00000000  0.25000000  0.50000000  1
  V  V21  1  0.00000000  0.25000000  0.62500000  1
  Cr  Cr22  1  0.00000000  0.25000000  0.75000000  1
  Cr  Cr23  1  0.00000000  0.25000000  0.87500000  1
  V  V24  1  0.00000000  0.37500000  0.00000000  1
  V  V25  1  0.00000000  0.37500000  0.12500000  1
  V  V26  1  0.00000000  0.37500000  0.25000000  1
  V  V27  1  0.00000000  0.37500000  0.37500000  1
  V  V28  1  0.00000000  0.37500000  0.50000000  1
  V  V29  1  0.00000000  0.37500000  0.62500000  1
  V  V30  1  0.00000000  0.37500000  0.75000000  1
  Ti  Ti31  1  0.00000000  0.37500000  0.87500000  1
  V  V32  1  0.00000000  0.50000000  0.00000000  1
  V  V33  1  0.00000000  0.50000000  0.12500000  1
  Ti  Ti34  1  0.00000000  0.50000000  0.25000000  1
  Cr  Cr35  1  0.00000000  0.50000000  0.37500000  1
  V  V36  1  0.00000000  0.50000000  0.50000000  1
  V  V37  1  0.00000000  0.50000000  0.62500000  1
  Cr  Cr38  1  0.00000000  0.50000000  0.75000000  1
  V  V39  1  0.00000000  0.50000000  0.87500000  1
  V  V40  1  0.00000000  0.62500000  0.00000000  1
  Ti  Ti41  1  0.00000000  0.62500000  0.12500000  1
  Cr  Cr42  1  0.00000000  0.62500000  0.25000000  1
  V  V43  1  0.00000000  0.62500000  0.37500000  1
  Cr  Cr44  1  0.00000000  0.62500000  0.50000000  1
  Ti  Ti45  1  0.00000000  0.62500000  0.62500000  1
  V  V46  1  0.00000000  0.62500000  0.75000000  1
  V  V47  1  0.00000000  0.62500000  0.87500000  1
  V  V48  1  0.00000000  0.75000000  0.00000000  1
  V  V49  1  0.00000000  0.75000000  0.12500000  1
  Cr  Cr50  1  0.00000000  0.75000000  0.25000000  1
  V  V51  1  0.00000000  0.75000000  0.37500000  1
  V  V52  1  0.00000000  0.75000000  0.50000000  1
  Cr  Cr53  1  0.00000000  0.75000000  0.62500000  1
  Cr  Cr54  1  0.00000000  0.75000000  0.75000000  1
  V  V55  1  0.00000000  0.75000000  0.87500000  1
  V  V56  1  0.00000000  0.87500000  0.00000000  1
  V  V57  1  0.00000000  0.87500000  0.12500000  1
  Cr  Cr58  1  0.00000000  0.87500000  0.25000000  1
  Cr  Cr59  1  0.00000000  0.87500000  0.37500000  1
  V  V60  1  0.00000000  0.87500000  0.50000000  1
  Ti  Ti61  1  0.00000000  0.87500000  0.62500000  1
  V  V62  1  0.00000000  0.87500000  0.75000000  1
  Cr  Cr63  1  0.00000000  0.87500000  0.87500000  1
  V  V64  1  0.12500000  0.00000000  0.00000000  1
  V  V65  1  0.12500000  0.00000000  0.12500000  1
  Cr  Cr66  1  0.12500000  0.00000000  0.25000000  1
  V  V67  1  0.12500000  0.00000000  0.37500000  1
  Cr  Cr68  1  0.12500000  0.00000000  0.50000000  1
  V  V69  1  0.12500000  0.00000000  0.62500000  1
  Cr  Cr70  1  0.12500000  0.00000000  0.75000000  1
  Cr  Cr71  1  0.12500000  0.00000000  0.87500000  1
  Cr  Cr72  1  0.12500000  0.12500000  0.00000000  1
  V  V73  1  0.12500000  0.12500000  0.12500000  1
  Cr  Cr74  1  0.12500000  0.12500000  0.25000000  1
  V  V75  1  0.12500000  0.12500000  0.37500000  1
  V  V76  1  0.12500000  0.12500000  0.50000000  1
  V  V77  1  0.12500000  0.12500000  0.62500000  1
  V  V78  1  0.12500000  0.12500000  0.75000000  1
  V  V79  1  0.12500000  0.12500000  0.87500000  1
  V  V80  1  0.12500000  0.25000000  0.00000000  1
  V  V81  1  0.12500000  0.25000000  0.12500000  1
  V  V82  1  0.12500000  0.25000000  0.25000000  1
  Cr  Cr83  1  0.12500000  0.25000000  0.37500000  1
  Cr  Cr84  1  0.12500000  0.25000000  0.50000000  1
  V  V85  1  0.12500000  0.25000000  0.62500000  1
  V  V86  1  0.12500000  0.25000000  0.75000000  1
  Cr  Cr87  1  0.12500000  0.25000000  0.87500000  1
  Ti  Ti88  1  0.12500000  0.37500000  0.00000000  1
  V  V89  1  0.12500000  0.37500000  0.12500000  1
  V  V90  1  0.12500000  0.37500000  0.25000000  1
  V  V91  1  0.12500000  0.37500000  0.37500000  1
  Cr  Cr92  1  0.12500000  0.37500000  0.50000000  1
  Cr  Cr93  1  0.12500000  0.37500000  0.62500000  1
  Cr  Cr94  1  0.12500000  0.37500000  0.75000000  1
  V  V95  1  0.12500000  0.37500000  0.87500000  1
  V  V96  1  0.12500000  0.50000000  0.00000000  1
  V  V97  1  0.12500000  0.50000000  0.12500000  1
  Cr  Cr98  1  0.12500000  0.50000000  0.25000000  1
  V  V99  1  0.12500000  0.50000000  0.37500000  1
  V  V100  1  0.12500000  0.50000000  0.50000000  1
  V  V101  1  0.12500000  0.50000000  0.62500000  1
  Cr  Cr102  1  0.12500000  0.50000000  0.75000000  1
  V  V103  1  0.12500000  0.50000000  0.87500000  1
  Cr  Cr104  1  0.12500000  0.62500000  0.00000000  1
  V  V105  1  0.12500000  0.62500000  0.12500000  1
  V  V106  1  0.12500000  0.62500000  0.25000000  1
  Cr  Cr107  1  0.12500000  0.62500000  0.37500000  1
  Ti  Ti108  1  0.12500000  0.62500000  0.50000000  1
  V  V109  1  0.12500000  0.62500000  0.62500000  1
  Cr  Cr110  1  0.12500000  0.62500000  0.75000000  1
  Cr  Cr111  1  0.12500000  0.62500000  0.87500000  1
  Ti  Ti112  1  0.12500000  0.75000000  0.00000000  1
  V  V113  1  0.12500000  0.75000000  0.12500000  1
  V  V114  1  0.12500000  0.75000000  0.25000000  1
  V  V115  1  0.12500000  0.75000000  0.37500000  1
  V  V116  1  0.12500000  0.75000000  0.50000000  1
  V  V117  1  0.12500000  0.75000000  0.62500000  1
  V  V118  1  0.12500000  0.75000000  0.75000000  1
  V  V119  1  0.12500000  0.75000000  0.87500000  1
  V  V120  1  0.12500000  0.87500000  0.00000000  1
  Cr  Cr121  1  0.12500000  0.87500000  0.12500000  1
  Cr  Cr122  1  0.12500000  0.87500000  0.25000000  1
  V  V123  1  0.12500000  0.87500000  0.37500000  1
  Ti  Ti124  1  0.12500000  0.87500000  0.50000000  1
  Ti  Ti125  1  0.12500000  0.87500000  0.62500000  1
  V  V126  1  0.12500000  0.87500000  0.75000000  1
  V  V127  1  0.12500000  0.87500000  0.87500000  1
  V  V128  1  0.25000000  0.00000000  0.00000000  1
  Cr  Cr129  1  0.25000000  0.00000000  0.12500000  1
  V  V130  1  0.25000000  0.00000000  0.25000000  1
  V  V131  1  0.25000000  0.00000000  0.37500000  1
  V  V132  1  0.25000000  0.00000000  0.50000000  1
  V  V133  1  0.25000000  0.00000000  0.62500000  1
  Ti  Ti134  1  0.25000000  0.00000000  0.75000000  1
  Cr  Cr135  1  0.25000000  0.00000000  0.87500000  1
  V  V136  1  0.25000000  0.12500000  0.00000000  1
  V  V137  1  0.25000000  0.12500000  0.12500000  1
  Cr  Cr138  1  0.25000000  0.12500000  0.25000000  1
  Cr  Cr139  1  0.25000000  0.12500000  0.37500000  1
  V  V140  1  0.25000000  0.12500000  0.50000000  1
  V  V141  1  0.25000000  0.12500000  0.62500000  1
  V  V142  1  0.25000000  0.12500000  0.75000000  1
  V  V143  1  0.25000000  0.12500000  0.87500000  1
  Cr  Cr144  1  0.25000000  0.25000000  0.00000000  1
  V  V145  1  0.25000000  0.25000000  0.12500000  1
  V  V146  1  0.25000000  0.25000000  0.25000000  1
  Cr  Cr147  1  0.25000000  0.25000000  0.37500000  1
  Cr  Cr148  1  0.25000000  0.25000000  0.50000000  1
  Cr  Cr149  1  0.25000000  0.25000000  0.62500000  1
  V  V150  1  0.25000000  0.25000000  0.75000000  1
  Cr  Cr151  1  0.25000000  0.25000000  0.87500000  1
  V  V152  1  0.25000000  0.37500000  0.00000000  1
  Cr  Cr153  1  0.25000000  0.37500000  0.12500000  1
  Cr  Cr154  1  0.25000000  0.37500000  0.25000000  1
  V  V155  1  0.25000000  0.37500000  0.37500000  1
  V  V156  1  0.25000000  0.37500000  0.50000000  1
  V  V157  1  0.25000000  0.37500000  0.62500000  1
  Cr  Cr158  1  0.25000000  0.37500000  0.75000000  1
  V  V159  1  0.25000000  0.37500000  0.87500000  1
  Cr  Cr160  1  0.25000000  0.50000000  0.00000000  1
  Cr  Cr161  1  0.25000000  0.50000000  0.12500000  1
  V  V162  1  0.25000000  0.50000000  0.25000000  1
  Ti  Ti163  1  0.25000000  0.50000000  0.37500000  1
  V  V164  1  0.25000000  0.50000000  0.50000000  1
  V  V165  1  0.25000000  0.50000000  0.62500000  1
  Cr  Cr166  1  0.25000000  0.50000000  0.75000000  1
  V  V167  1  0.25000000  0.50000000  0.87500000  1
  V  V168  1  0.25000000  0.62500000  0.00000000  1
  Cr  Cr169  1  0.25000000  0.62500000  0.12500000  1
  Cr  Cr170  1  0.25000000  0.62500000  0.25000000  1
  V  V171  1  0.25000000  0.62500000  0.37500000  1
  Ti  Ti172  1  0.25000000  0.62500000  0.50000000  1
  V  V173  1  0.25000000  0.62500000  0.62500000  1
  V  V174  1  0.25000000  0.62500000  0.75000000  1
  Ti  Ti175  1  0.25000000  0.62500000  0.87500000  1
  V  V176  1  0.25000000  0.75000000  0.00000000  1
  V  V177  1  0.25000000  0.75000000  0.12500000  1
  V  V178  1  0.25000000  0.75000000  0.25000000  1
  Cr  Cr179  1  0.25000000  0.75000000  0.37500000  1
  V  V180  1  0.25000000  0.75000000  0.50000000  1
  Cr  Cr181  1  0.25000000  0.75000000  0.62500000  1
  V  V182  1  0.25000000  0.75000000  0.75000000  1
  V  V183  1  0.25000000  0.75000000  0.87500000  1
  Cr  Cr184  1  0.25000000  0.87500000  0.00000000  1
  Cr  Cr185  1  0.25000000  0.87500000  0.12500000  1
  V  V186  1  0.25000000  0.87500000  0.25000000  1
  V  V187  1  0.25000000  0.87500000  0.37500000  1
  Cr  Cr188  1  0.25000000  0.87500000  0.50000000  1
  V  V189  1  0.25000000  0.87500000  0.62500000  1
  V  V190  1  0.25000000  0.87500000  0.75000000  1
  V  V191  1  0.25000000  0.87500000  0.87500000  1
  V  V192  1  0.37500000  0.00000000  0.00000000  1
  Cr  Cr193  1  0.37500000  0.00000000  0.12500000  1
  V  V194  1  0.37500000  0.00000000  0.25000000  1
  V  V195  1  0.37500000  0.00000000  0.37500000  1
  V  V196  1  0.37500000  0.00000000  0.50000000  1
  Ti  Ti197  1  0.37500000  0.00000000  0.62500000  1
  Cr  Cr198  1  0.37500000  0.00000000  0.75000000  1
  Cr  Cr199  1  0.37500000  0.00000000  0.87500000  1
  V  V200  1  0.37500000  0.12500000  0.00000000  1
  V  V201  1  0.37500000  0.12500000  0.12500000  1
  V  V202  1  0.37500000  0.12500000  0.25000000  1
  Cr  Cr203  1  0.37500000  0.12500000  0.37500000  1
  Ti  Ti204  1  0.37500000  0.12500000  0.50000000  1
  V  V205  1  0.37500000  0.12500000  0.62500000  1
  V  V206  1  0.37500000  0.12500000  0.75000000  1
  Ti  Ti207  1  0.37500000  0.12500000  0.87500000  1
  V  V208  1  0.37500000  0.25000000  0.00000000  1
  V  V209  1  0.37500000  0.25000000  0.12500000  1
  V  V210  1  0.37500000  0.25000000  0.25000000  1
  V  V211  1  0.37500000  0.25000000  0.37500000  1
  V  V212  1  0.37500000  0.25000000  0.50000000  1
  V  V213  1  0.37500000  0.25000000  0.62500000  1
  Cr  Cr214  1  0.37500000  0.25000000  0.75000000  1
  Cr  Cr215  1  0.37500000  0.25000000  0.87500000  1
  V  V216  1  0.37500000  0.37500000  0.00000000  1
  Ti  Ti217  1  0.37500000  0.37500000  0.12500000  1
  Ti  Ti218  1  0.37500000  0.37500000  0.25000000  1
  V  V219  1  0.37500000  0.37500000  0.37500000  1
  Cr  Cr220  1  0.37500000  0.37500000  0.50000000  1
  V  V221  1  0.37500000  0.37500000  0.62500000  1
  Ti  Ti222  1  0.37500000  0.37500000  0.75000000  1
  Cr  Cr223  1  0.37500000  0.37500000  0.87500000  1
  Cr  Cr224  1  0.37500000  0.50000000  0.00000000  1
  V  V225  1  0.37500000  0.50000000  0.12500000  1
  V  V226  1  0.37500000  0.50000000  0.25000000  1
  Ti  Ti227  1  0.37500000  0.50000000  0.37500000  1
  Cr  Cr228  1  0.37500000  0.50000000  0.50000000  1
  Cr  Cr229  1  0.37500000  0.50000000  0.62500000  1
  V  V230  1  0.37500000  0.50000000  0.75000000  1
  Cr  Cr231  1  0.37500000  0.50000000  0.87500000  1
  V  V232  1  0.37500000  0.62500000  0.00000000  1
  V  V233  1  0.37500000  0.62500000  0.12500000  1
  Cr  Cr234  1  0.37500000  0.62500000  0.25000000  1
  V  V235  1  0.37500000  0.62500000  0.37500000  1
  Cr  Cr236  1  0.37500000  0.62500000  0.50000000  1
  V  V237  1  0.37500000  0.62500000  0.62500000  1
  Cr  Cr238  1  0.37500000  0.62500000  0.75000000  1
  V  V239  1  0.37500000  0.62500000  0.87500000  1
  V  V240  1  0.37500000  0.75000000  0.00000000  1
  V  V241  1  0.37500000  0.75000000  0.12500000  1
  Ti  Ti242  1  0.37500000  0.75000000  0.25000000  1
  V  V243  1  0.37500000  0.75000000  0.37500000  1
  V  V244  1  0.37500000  0.75000000  0.50000000  1
  Ti  Ti245  1  0.37500000  0.75000000  0.62500000  1
  Ti  Ti246  1  0.37500000  0.75000000  0.75000000  1
  Cr  Cr247  1  0.37500000  0.75000000  0.87500000  1
  V  V248  1  0.37500000  0.87500000  0.00000000  1
  V  V249  1  0.37500000  0.87500000  0.12500000  1
  V  V250  1  0.37500000  0.87500000  0.25000000  1
  V  V251  1  0.37500000  0.87500000  0.37500000  1
  Cr  Cr252  1  0.37500000  0.87500000  0.50000000  1
  V  V253  1  0.37500000  0.87500000  0.62500000  1
  V  V254  1  0.37500000  0.87500000  0.75000000  1
  V  V255  1  0.37500000  0.87500000  0.87500000  1
  V  V256  1  0.50000000  0.00000000  0.00000000  1
  V  V257  1  0.50000000  0.00000000  0.12500000  1
  V  V258  1  0.50000000  0.00000000  0.25000000  1
  V  V259  1  0.50000000  0.00000000  0.37500000  1
  Cr  Cr260  1  0.50000000  0.00000000  0.50000000  1
  Ti  Ti261  1  0.50000000  0.00000000  0.62500000  1
  V  V262  1  0.50000000  0.00000000  0.75000000  1
  V  V263  1  0.50000000  0.00000000  0.87500000  1
  V  V264  1  0.50000000  0.12500000  0.00000000  1
  Cr  Cr265  1  0.50000000  0.12500000  0.12500000  1
  V  V266  1  0.50000000  0.12500000  0.25000000  1
  V  V267  1  0.50000000  0.12500000  0.37500000  1
  Ti  Ti268  1  0.50000000  0.12500000  0.50000000  1
  V  V269  1  0.50000000  0.12500000  0.62500000  1
  Cr  Cr270  1  0.50000000  0.12500000  0.75000000  1
  V  V271  1  0.50000000  0.12500000  0.87500000  1
  V  V272  1  0.50000000  0.25000000  0.00000000  1
  V  V273  1  0.50000000  0.25000000  0.12500000  1
  V  V274  1  0.50000000  0.25000000  0.25000000  1
  Cr  Cr275  1  0.50000000  0.25000000  0.37500000  1
  V  V276  1  0.50000000  0.25000000  0.50000000  1
  V  V277  1  0.50000000  0.25000000  0.62500000  1
  Cr  Cr278  1  0.50000000  0.25000000  0.75000000  1
  Cr  Cr279  1  0.50000000  0.25000000  0.87500000  1
  V  V280  1  0.50000000  0.37500000  0.00000000  1
  V  V281  1  0.50000000  0.37500000  0.12500000  1
  V  V282  1  0.50000000  0.37500000  0.25000000  1
  Cr  Cr283  1  0.50000000  0.37500000  0.37500000  1
  V  V284  1  0.50000000  0.37500000  0.50000000  1
  Cr  Cr285  1  0.50000000  0.37500000  0.62500000  1
  V  V286  1  0.50000000  0.37500000  0.75000000  1
  V  V287  1  0.50000000  0.37500000  0.87500000  1
  Cr  Cr288  1  0.50000000  0.50000000  0.00000000  1
  V  V289  1  0.50000000  0.50000000  0.12500000  1
  Cr  Cr290  1  0.50000000  0.50000000  0.25000000  1
  V  V291  1  0.50000000  0.50000000  0.37500000  1
  V  V292  1  0.50000000  0.50000000  0.50000000  1
  V  V293  1  0.50000000  0.50000000  0.62500000  1
  Cr  Cr294  1  0.50000000  0.50000000  0.75000000  1
  V  V295  1  0.50000000  0.50000000  0.87500000  1
  V  V296  1  0.50000000  0.62500000  0.00000000  1
  V  V297  1  0.50000000  0.62500000  0.12500000  1
  V  V298  1  0.50000000  0.62500000  0.25000000  1
  Cr  Cr299  1  0.50000000  0.62500000  0.37500000  1
  Cr  Cr300  1  0.50000000  0.62500000  0.50000000  1
  V  V301  1  0.50000000  0.62500000  0.62500000  1
  Cr  Cr302  1  0.50000000  0.62500000  0.75000000  1
  Cr  Cr303  1  0.50000000  0.62500000  0.87500000  1
  V  V304  1  0.50000000  0.75000000  0.00000000  1
  V  V305  1  0.50000000  0.75000000  0.12500000  1
  V  V306  1  0.50000000  0.75000000  0.25000000  1
  V  V307  1  0.50000000  0.75000000  0.37500000  1
  V  V308  1  0.50000000  0.75000000  0.50000000  1
  V  V309  1  0.50000000  0.75000000  0.62500000  1
  Cr  Cr310  1  0.50000000  0.75000000  0.75000000  1
  V  V311  1  0.50000000  0.75000000  0.87500000  1
  V  V312  1  0.50000000  0.87500000  0.00000000  1
  Cr  Cr313  1  0.50000000  0.87500000  0.12500000  1
  Ti  Ti314  1  0.50000000  0.87500000  0.25000000  1
  Cr  Cr315  1  0.50000000  0.87500000  0.37500000  1
  V  V316  1  0.50000000  0.87500000  0.50000000  1
  Ti  Ti317  1  0.50000000  0.87500000  0.62500000  1
  V  V318  1  0.50000000  0.87500000  0.75000000  1
  V  V319  1  0.50000000  0.87500000  0.87500000  1
  Cr  Cr320  1  0.62500000  0.00000000  0.00000000  1
  Cr  Cr321  1  0.62500000  0.00000000  0.12500000  1
  V  V322  1  0.62500000  0.00000000  0.25000000  1
  Cr  Cr323  1  0.62500000  0.00000000  0.37500000  1
  V  V324  1  0.62500000  0.00000000  0.50000000  1
  Cr  Cr325  1  0.62500000  0.00000000  0.62500000  1
  Cr  Cr326  1  0.62500000  0.00000000  0.75000000  1
  Cr  Cr327  1  0.62500000  0.00000000  0.87500000  1
  V  V328  1  0.62500000  0.12500000  0.00000000  1
  V  V329  1  0.62500000  0.12500000  0.12500000  1
  Cr  Cr330  1  0.62500000  0.12500000  0.25000000  1
  V  V331  1  0.62500000  0.12500000  0.37500000  1
  Cr  Cr332  1  0.62500000  0.12500000  0.50000000  1
  Ti  Ti333  1  0.62500000  0.12500000  0.62500000  1
  V  V334  1  0.62500000  0.12500000  0.75000000  1
  V  V335  1  0.62500000  0.12500000  0.87500000  1
  V  V336  1  0.62500000  0.25000000  0.00000000  1
  V  V337  1  0.62500000  0.25000000  0.12500000  1
  V  V338  1  0.62500000  0.25000000  0.25000000  1
  V  V339  1  0.62500000  0.25000000  0.37500000  1
  Cr  Cr340  1  0.62500000  0.25000000  0.50000000  1
  V  V341  1  0.62500000  0.25000000  0.62500000  1
  Ti  Ti342  1  0.62500000  0.25000000  0.75000000  1
  V  V343  1  0.62500000  0.25000000  0.87500000  1
  V  V344  1  0.62500000  0.37500000  0.00000000  1
  V  V345  1  0.62500000  0.37500000  0.12500000  1
  V  V346  1  0.62500000  0.37500000  0.25000000  1
  Ti  Ti347  1  0.62500000  0.37500000  0.37500000  1
  V  V348  1  0.62500000  0.37500000  0.50000000  1
  V  V349  1  0.62500000  0.37500000  0.62500000  1
  Ti  Ti350  1  0.62500000  0.37500000  0.75000000  1
  V  V351  1  0.62500000  0.37500000  0.87500000  1
  Cr  Cr352  1  0.62500000  0.50000000  0.00000000  1
  V  V353  1  0.62500000  0.50000000  0.12500000  1
  Ti  Ti354  1  0.62500000  0.50000000  0.25000000  1
  V  V355  1  0.62500000  0.50000000  0.37500000  1
  V  V356  1  0.62500000  0.50000000  0.50000000  1
  V  V357  1  0.62500000  0.50000000  0.62500000  1
  V  V358  1  0.62500000  0.50000000  0.75000000  1
  Ti  Ti359  1  0.62500000  0.50000000  0.87500000  1
  V  V360  1  0.62500000  0.62500000  0.00000000  1
  Cr  Cr361  1  0.62500000  0.62500000  0.12500000  1
  V  V362  1  0.62500000  0.62500000  0.25000000  1
  Ti  Ti363  1  0.62500000  0.62500000  0.37500000  1
  V  V364  1  0.62500000  0.62500000  0.50000000  1
  V  V365  1  0.62500000  0.62500000  0.62500000  1
  Cr  Cr366  1  0.62500000  0.62500000  0.75000000  1
  Cr  Cr367  1  0.62500000  0.62500000  0.87500000  1
  V  V368  1  0.62500000  0.75000000  0.00000000  1
  V  V369  1  0.62500000  0.75000000  0.12500000  1
  V  V370  1  0.62500000  0.75000000  0.25000000  1
  V  V371  1  0.62500000  0.75000000  0.37500000  1
  V  V372  1  0.62500000  0.75000000  0.50000000  1
  Cr  Cr373  1  0.62500000  0.75000000  0.62500000  1
  V  V374  1  0.62500000  0.75000000  0.75000000  1
  V  V375  1  0.62500000  0.75000000  0.87500000  1
  Ti  Ti376  1  0.62500000  0.87500000  0.00000000  1
  Cr  Cr377  1  0.62500000  0.87500000  0.12500000  1
  Cr  Cr378  1  0.62500000  0.87500000  0.25000000  1
  V  V379  1  0.62500000  0.87500000  0.37500000  1
  V  V380  1  0.62500000  0.87500000  0.50000000  1
  V  V381  1  0.62500000  0.87500000  0.62500000  1
  Ti  Ti382  1  0.62500000  0.87500000  0.75000000  1
  V  V383  1  0.62500000  0.87500000  0.87500000  1
  V  V384  1  0.75000000  0.00000000  0.00000000  1
  Cr  Cr385  1  0.75000000  0.00000000  0.12500000  1
  V  V386  1  0.75000000  0.00000000  0.25000000  1
  Cr  Cr387  1  0.75000000  0.00000000  0.37500000  1
  V  V388  1  0.75000000  0.00000000  0.50000000  1
  Cr  Cr389  1  0.75000000  0.00000000  0.62500000  1
  V  V390  1  0.75000000  0.00000000  0.75000000  1
  V  V391  1  0.75000000  0.00000000  0.87500000  1
  V  V392  1  0.75000000  0.12500000  0.00000000  1
  Cr  Cr393  1  0.75000000  0.12500000  0.12500000  1
  V  V394  1  0.75000000  0.12500000  0.25000000  1
  Cr  Cr395  1  0.75000000  0.12500000  0.37500000  1
  V  V396  1  0.75000000  0.12500000  0.50000000  1
  Cr  Cr397  1  0.75000000  0.12500000  0.62500000  1
  Cr  Cr398  1  0.75000000  0.12500000  0.75000000  1
  Cr  Cr399  1  0.75000000  0.12500000  0.87500000  1
  V  V400  1  0.75000000  0.25000000  0.00000000  1
  V  V401  1  0.75000000  0.25000000  0.12500000  1
  Ti  Ti402  1  0.75000000  0.25000000  0.25000000  1
  Ti  Ti403  1  0.75000000  0.25000000  0.37500000  1
  Ti  Ti404  1  0.75000000  0.25000000  0.50000000  1
  V  V405  1  0.75000000  0.25000000  0.62500000  1
  V  V406  1  0.75000000  0.25000000  0.75000000  1
  Cr  Cr407  1  0.75000000  0.25000000  0.87500000  1
  Cr  Cr408  1  0.75000000  0.37500000  0.00000000  1
  Cr  Cr409  1  0.75000000  0.37500000  0.12500000  1
  V  V410  1  0.75000000  0.37500000  0.25000000  1
  V  V411  1  0.75000000  0.37500000  0.37500000  1
  V  V412  1  0.75000000  0.37500000  0.50000000  1
  V  V413  1  0.75000000  0.37500000  0.62500000  1
  Ti  Ti414  1  0.75000000  0.37500000  0.75000000  1
  V  V415  1  0.75000000  0.37500000  0.87500000  1
  V  V416  1  0.75000000  0.50000000  0.00000000  1
  V  V417  1  0.75000000  0.50000000  0.12500000  1
  V  V418  1  0.75000000  0.50000000  0.25000000  1
  V  V419  1  0.75000000  0.50000000  0.37500000  1
  V  V420  1  0.75000000  0.50000000  0.50000000  1
  Cr  Cr421  1  0.75000000  0.50000000  0.62500000  1
  V  V422  1  0.75000000  0.50000000  0.75000000  1
  V  V423  1  0.75000000  0.50000000  0.87500000  1
  V  V424  1  0.75000000  0.62500000  0.00000000  1
  V  V425  1  0.75000000  0.62500000  0.12500000  1
  Cr  Cr426  1  0.75000000  0.62500000  0.25000000  1
  V  V427  1  0.75000000  0.62500000  0.37500000  1
  Cr  Cr428  1  0.75000000  0.62500000  0.50000000  1
  Ti  Ti429  1  0.75000000  0.62500000  0.62500000  1
  V  V430  1  0.75000000  0.62500000  0.75000000  1
  V  V431  1  0.75000000  0.62500000  0.87500000  1
  V  V432  1  0.75000000  0.75000000  0.00000000  1
  Cr  Cr433  1  0.75000000  0.75000000  0.12500000  1
  Cr  Cr434  1  0.75000000  0.75000000  0.25000000  1
  V  V435  1  0.75000000  0.75000000  0.37500000  1
  Cr  Cr436  1  0.75000000  0.75000000  0.50000000  1
  Cr  Cr437  1  0.75000000  0.75000000  0.62500000  1
  Cr  Cr438  1  0.75000000  0.75000000  0.75000000  1
  Cr  Cr439  1  0.75000000  0.75000000  0.87500000  1
  V  V440  1  0.75000000  0.87500000  0.00000000  1
  V  V441  1  0.75000000  0.87500000  0.12500000  1
  Ti  Ti442  1  0.75000000  0.87500000  0.25000000  1
  V  V443  1  0.75000000  0.87500000  0.37500000  1
  V  V444  1  0.75000000  0.87500000  0.50000000  1
  Cr  Cr445  1  0.75000000  0.87500000  0.62500000  1
  V  V446  1  0.75000000  0.87500000  0.75000000  1
  V  V447  1  0.75000000  0.87500000  0.87500000  1
  V  V448  1  0.87500000  0.00000000  0.00000000  1
  Cr  Cr449  1  0.87500000  0.00000000  0.12500000  1
  Cr  Cr450  1  0.87500000  0.00000000  0.25000000  1
  Ti  Ti451  1  0.87500000  0.00000000  0.37500000  1
  V  V452  1  0.87500000  0.00000000  0.50000000  1
  Cr  Cr453  1  0.87500000  0.00000000  0.62500000  1
  V  V454  1  0.87500000  0.00000000  0.75000000  1
  V  V455  1  0.87500000  0.00000000  0.87500000  1
  Ti  Ti456  1  0.87500000  0.12500000  0.00000000  1
  Cr  Cr457  1  0.87500000  0.12500000  0.12500000  1
  Cr  Cr458  1  0.87500000  0.12500000  0.25000000  1
  Cr  Cr459  1  0.87500000  0.12500000  0.37500000  1
  V  V460  1  0.87500000  0.12500000  0.50000000  1
  V  V461  1  0.87500000  0.12500000  0.62500000  1
  Cr  Cr462  1  0.87500000  0.12500000  0.75000000  1
  Ti  Ti463  1  0.87500000  0.12500000  0.87500000  1
  V  V464  1  0.87500000  0.25000000  0.00000000  1
  V  V465  1  0.87500000  0.25000000  0.12500000  1
  V  V466  1  0.87500000  0.25000000  0.25000000  1
  Ti  Ti467  1  0.87500000  0.25000000  0.37500000  1
  Cr  Cr468  1  0.87500000  0.25000000  0.50000000  1
  Cr  Cr469  1  0.87500000  0.25000000  0.62500000  1
  V  V470  1  0.87500000  0.25000000  0.75000000  1
  Cr  Cr471  1  0.87500000  0.25000000  0.87500000  1
  Cr  Cr472  1  0.87500000  0.37500000  0.00000000  1
  Cr  Cr473  1  0.87500000  0.37500000  0.12500000  1
  V  V474  1  0.87500000  0.37500000  0.25000000  1
  V  V475  1  0.87500000  0.37500000  0.37500000  1
  V  V476  1  0.87500000  0.37500000  0.50000000  1
  V  V477  1  0.87500000  0.37500000  0.62500000  1
  Cr  Cr478  1  0.87500000  0.37500000  0.75000000  1
  Cr  Cr479  1  0.87500000  0.37500000  0.87500000  1
  V  V480  1  0.87500000  0.50000000  0.00000000  1
  V  V481  1  0.87500000  0.50000000  0.12500000  1
  V  V482  1  0.87500000  0.50000000  0.25000000  1
  Cr  Cr483  1  0.87500000  0.50000000  0.37500000  1
  Cr  Cr484  1  0.87500000  0.50000000  0.50000000  1
  V  V485  1  0.87500000  0.50000000  0.62500000  1
  V  V486  1  0.87500000  0.50000000  0.75000000  1
  V  V487  1  0.87500000  0.50000000  0.87500000  1
  V  V488  1  0.87500000  0.62500000  0.00000000  1
  V  V489  1  0.87500000  0.62500000  0.12500000  1
  V  V490  1  0.87500000  0.62500000  0.25000000  1
  V  V491  1  0.87500000  0.62500000  0.37500000  1
  V  V492  1  0.87500000  0.62500000  0.50000000  1
  V  V493  1  0.87500000  0.62500000  0.62500000  1
  Ti  Ti494  1  0.87500000  0.62500000  0.75000000  1
  Cr  Cr495  1  0.87500000  0.62500000  0.87500000  1
  V  V496  1  0.87500000  0.75000000  0.00000000  1
  V  V497  1  0.87500000  0.75000000  0.12500000  1
  Cr  Cr498  1  0.87500000  0.75000000  0.25000000  1
  Cr  Cr499  1  0.87500000  0.75000000  0.37500000  1
  V  V500  1  0.87500000  0.75000000  0.50000000  1
  V  V501  1  0.87500000  0.75000000  0.62500000  1
  V  V502  1  0.87500000  0.75000000  0.75000000  1
  V  V503  1  0.87500000  0.75000000  0.87500000  1
  V  V504  1  0.87500000  0.87500000  0.00000000  1
  V  V505  1  0.87500000  0.87500000  0.12500000  1
  Ti  Ti506  1  0.87500000  0.87500000  0.25000000  1
  V  V507  1  0.87500000  0.87500000  0.37500000  1
  Cr  Cr508  1  0.87500000  0.87500000  0.50000000  1
  V  V509  1  0.87500000  0.87500000  0.62500000  1
  V  V510  1  0.87500000  0.87500000  0.75000000  1
  Cr  Cr511  1  0.87500000  0.87500000  0.87500000  1
