# generated using pymatgen
data_Ti154V309Cr49
_symmetry_space_group_name_H-M   'P 1'
_cell_length_a   20.85389172
_cell_length_b   20.85389172
_cell_length_c   20.85389172
_cell_angle_alpha   109.47122063
_cell_angle_beta   109.47122063
_cell_angle_gamma   109.47122063
_symmetry_Int_Tables_number   1
_chemical_formula_structural   Ti154V309Cr49
_chemical_formula_sum   'Ti154 V309 Cr49'
_cell_volume   6981.35065600
_cell_formula_units_Z   1
loop_
 _symmetry_equiv_pos_site_id
 _symmetry_equiv_pos_as_xyz
  1  'x, y, z'
loop_
 _atom_site_type_symbol
 _atom_site_label
 _atom_site_symmetry_multiplicity
 _atom_site_fract_x
 _atom_site_fract_y
 _atom_site_fract_z
 _atom_site_occupancy
  V  V0  1  0.00000000  0.00000000  0.00000000  1
  V  V1  1  0.00000000  0.00000000  0.12500000  1
  V  V2  1  0.00000000  0.00000000  0.25000000  1
  V  V3  1  0.00000000  0.00000000  0.37500000  1
  V  V4  1  0.00000000  0.00000000  0.50000000  1
  Ti  Ti5  1  0.00000000  0.00000000  0.62500000  1
  Cr  Cr6  1  0.00000000  0.00000000  0.75000000  1
  V  V7  1  0.00000000  0.00000000  0.87500000  1
  Cr  Cr8  1  0.00000000  0.12500000  0.00000000  1
  V  V9  1  0.00000000  0.12500000  0.12500000  1
  V  V10  1  0.00000000  0.12500000  0.25000000  1
  V  V11  1  0.00000000  0.12500000  0.37500000  1
  V  V12  1  0.00000000  0.12500000  0.50000000  1
  V  V13  1  0.00000000  0.12500000  0.62500000  1
  V  V14  1  0.00000000  0.12500000  0.75000000  1
  Ti  Ti15  1  0.00000000  0.12500000  0.87500000  1
  V  V16  1  0.00000000  0.25000000  0.00000000  1
  Ti  Ti17  1  0.00000000  0.25000000  0.12500000  1
  Ti  Ti18  1  0.00000000  0.25000000  0.25000000  1
  V  V19  1  0.00000000  0.25000000  0.37500000  1
  V  V20  1  0.00000000  0.25000000  0.50000000  1
  V  V21  1  0.00000000  0.25000000  0.62500000  1
  Cr  Cr22  1  0.00000000  0.25000000  0.75000000  1
  V  V23  1  0.00000000  0.25000000  0.87500000  1
  V  V24  1  0.00000000  0.37500000  0.00000000  1
  Ti  Ti25  1  0.00000000  0.37500000  0.12500000  1
  V  V26  1  0.00000000  0.37500000  0.25000000  1
  Ti  Ti27  1  0.00000000  0.37500000  0.37500000  1
  V  V28  1  0.00000000  0.37500000  0.50000000  1
  Ti  Ti29  1  0.00000000  0.37500000  0.62500000  1
  V  V30  1  0.00000000  0.37500000  0.75000000  1
  Ti  Ti31  1  0.00000000  0.37500000  0.87500000  1
  Ti  Ti32  1  0.00000000  0.50000000  0.00000000  1
  Ti  Ti33  1  0.00000000  0.50000000  0.12500000  1
  Ti  Ti34  1  0.00000000  0.50000000  0.25000000  1
  V  V35  1  0.00000000  0.50000000  0.37500000  1
  Ti  Ti36  1  0.00000000  0.50000000  0.50000000  1
  V  V37  1  0.00000000  0.50000000  0.62500000  1
  Ti  Ti38  1  0.00000000  0.50000000  0.75000000  1
  V  V39  1  0.00000000  0.50000000  0.87500000  1
  V  V40  1  0.00000000  0.62500000  0.00000000  1
  V  V41  1  0.00000000  0.62500000  0.12500000  1
  V  V42  1  0.00000000  0.62500000  0.25000000  1
  Ti  Ti43  1  0.00000000  0.62500000  0.37500000  1
  Ti  Ti44  1  0.00000000  0.62500000  0.50000000  1
  Cr  Cr45  1  0.00000000  0.62500000  0.62500000  1
  V  V46  1  0.00000000  0.62500000  0.75000000  1
  V  V47  1  0.00000000  0.62500000  0.87500000  1
  V  V48  1  0.00000000  0.75000000  0.00000000  1
  V  V49  1  0.00000000  0.75000000  0.12500000  1
  V  V50  1  0.00000000  0.75000000  0.25000000  1
  V  V51  1  0.00000000  0.75000000  0.37500000  1
  V  V52  1  0.00000000  0.75000000  0.50000000  1
  V  V53  1  0.00000000  0.75000000  0.62500000  1
  V  V54  1  0.00000000  0.75000000  0.75000000  1
  V  V55  1  0.00000000  0.75000000  0.87500000  1
  Ti  Ti56  1  0.00000000  0.87500000  0.00000000  1
  Cr  Cr57  1  0.00000000  0.87500000  0.12500000  1
  V  V58  1  0.00000000  0.87500000  0.25000000  1
  V  V59  1  0.00000000  0.87500000  0.37500000  1
  V  V60  1  0.00000000  0.87500000  0.50000000  1
  V  V61  1  0.00000000  0.87500000  0.62500000  1
  Ti  Ti62  1  0.00000000  0.87500000  0.75000000  1
  V  V63  1  0.00000000  0.87500000  0.87500000  1
  Ti  Ti64  1  0.12500000  0.00000000  0.00000000  1
  Ti  Ti65  1  0.12500000  0.00000000  0.12500000  1
  Ti  Ti66  1  0.12500000  0.00000000  0.25000000  1
  V  V67  1  0.12500000  0.00000000  0.37500000  1
  V  V68  1  0.12500000  0.00000000  0.50000000  1
  Ti  Ti69  1  0.12500000  0.00000000  0.62500000  1
  Ti  Ti70  1  0.12500000  0.00000000  0.75000000  1
  V  V71  1  0.12500000  0.00000000  0.87500000  1
  V  V72  1  0.12500000  0.12500000  0.00000000  1
  V  V73  1  0.12500000  0.12500000  0.12500000  1
  V  V74  1  0.12500000  0.12500000  0.25000000  1
  V  V75  1  0.12500000  0.12500000  0.37500000  1
  V  V76  1  0.12500000  0.12500000  0.50000000  1
  V  V77  1  0.12500000  0.12500000  0.62500000  1
  V  V78  1  0.12500000  0.12500000  0.75000000  1
  Ti  Ti79  1  0.12500000  0.12500000  0.87500000  1
  V  V80  1  0.12500000  0.25000000  0.00000000  1
  Ti  Ti81  1  0.12500000  0.25000000  0.12500000  1
  V  V82  1  0.12500000  0.25000000  0.25000000  1
  Cr  Cr83  1  0.12500000  0.25000000  0.37500000  1
  V  V84  1  0.12500000  0.25000000  0.50000000  1
  V  V85  1  0.12500000  0.25000000  0.62500000  1
  V  V86  1  0.12500000  0.25000000  0.75000000  1
  Cr  Cr87  1  0.12500000  0.25000000  0.87500000  1
  Ti  Ti88  1  0.12500000  0.37500000  0.00000000  1
  V  V89  1  0.12500000  0.37500000  0.12500000  1
  V  V90  1  0.12500000  0.37500000  0.25000000  1
  V  V91  1  0.12500000  0.37500000  0.37500000  1
  V  V92  1  0.12500000  0.37500000  0.50000000  1
  Cr  Cr93  1  0.12500000  0.37500000  0.62500000  1
  V  V94  1  0.12500000  0.37500000  0.75000000  1
  V  V95  1  0.12500000  0.37500000  0.87500000  1
  V  V96  1  0.12500000  0.50000000  0.00000000  1
  Ti  Ti97  1  0.12500000  0.50000000  0.12500000  1
  Cr  Cr98  1  0.12500000  0.50000000  0.25000000  1
  Ti  Ti99  1  0.12500000  0.50000000  0.37500000  1
  V  V100  1  0.12500000  0.50000000  0.50000000  1
  V  V101  1  0.12500000  0.50000000  0.62500000  1
  V  V102  1  0.12500000  0.50000000  0.75000000  1
  V  V103  1  0.12500000  0.50000000  0.87500000  1
  V  V104  1  0.12500000  0.62500000  0.00000000  1
  V  V105  1  0.12500000  0.62500000  0.12500000  1
  V  V106  1  0.12500000  0.62500000  0.25000000  1
  Ti  Ti107  1  0.12500000  0.62500000  0.37500000  1
  Ti  Ti108  1  0.12500000  0.62500000  0.50000000  1
  Ti  Ti109  1  0.12500000  0.62500000  0.62500000  1
  Cr  Cr110  1  0.12500000  0.62500000  0.75000000  1
  V  V111  1  0.12500000  0.62500000  0.87500000  1
  V  V112  1  0.12500000  0.75000000  0.00000000  1
  V  V113  1  0.12500000  0.75000000  0.12500000  1
  V  V114  1  0.12500000  0.75000000  0.25000000  1
  V  V115  1  0.12500000  0.75000000  0.37500000  1
  V  V116  1  0.12500000  0.75000000  0.50000000  1
  Ti  Ti117  1  0.12500000  0.75000000  0.62500000  1
  Ti  Ti118  1  0.12500000  0.75000000  0.75000000  1
  V  V119  1  0.12500000  0.75000000  0.87500000  1
  V  V120  1  0.12500000  0.87500000  0.00000000  1
  V  V121  1  0.12500000  0.87500000  0.12500000  1
  V  V122  1  0.12500000  0.87500000  0.25000000  1
  V  V123  1  0.12500000  0.87500000  0.37500000  1
  V  V124  1  0.12500000  0.87500000  0.50000000  1
  V  V125  1  0.12500000  0.87500000  0.62500000  1
  Cr  Cr126  1  0.12500000  0.87500000  0.75000000  1
  V  V127  1  0.12500000  0.87500000  0.87500000  1
  V  V128  1  0.25000000  0.00000000  0.00000000  1
  Ti  Ti129  1  0.25000000  0.00000000  0.12500000  1
  Ti  Ti130  1  0.25000000  0.00000000  0.25000000  1
  V  V131  1  0.25000000  0.00000000  0.37500000  1
  V  V132  1  0.25000000  0.00000000  0.50000000  1
  V  V133  1  0.25000000  0.00000000  0.62500000  1
  V  V134  1  0.25000000  0.00000000  0.75000000  1
  Ti  Ti135  1  0.25000000  0.00000000  0.87500000  1
  Ti  Ti136  1  0.25000000  0.12500000  0.00000000  1
  Cr  Cr137  1  0.25000000  0.12500000  0.12500000  1
  V  V138  1  0.25000000  0.12500000  0.25000000  1
  V  V139  1  0.25000000  0.12500000  0.37500000  1
  V  V140  1  0.25000000  0.12500000  0.50000000  1
  V  V141  1  0.25000000  0.12500000  0.62500000  1
  Ti  Ti142  1  0.25000000  0.12500000  0.75000000  1
  V  V143  1  0.25000000  0.12500000  0.87500000  1
  Ti  Ti144  1  0.25000000  0.25000000  0.00000000  1
  V  V145  1  0.25000000  0.25000000  0.12500000  1
  Cr  Cr146  1  0.25000000  0.25000000  0.25000000  1
  V  V147  1  0.25000000  0.25000000  0.37500000  1
  V  V148  1  0.25000000  0.25000000  0.50000000  1
  Ti  Ti149  1  0.25000000  0.25000000  0.62500000  1
  Ti  Ti150  1  0.25000000  0.25000000  0.75000000  1
  V  V151  1  0.25000000  0.25000000  0.87500000  1
  V  V152  1  0.25000000  0.37500000  0.00000000  1
  V  V153  1  0.25000000  0.37500000  0.12500000  1
  Ti  Ti154  1  0.25000000  0.37500000  0.25000000  1
  Ti  Ti155  1  0.25000000  0.37500000  0.37500000  1
  V  V156  1  0.25000000  0.37500000  0.50000000  1
  Ti  Ti157  1  0.25000000  0.37500000  0.62500000  1
  V  V158  1  0.25000000  0.37500000  0.75000000  1
  V  V159  1  0.25000000  0.37500000  0.87500000  1
  V  V160  1  0.25000000  0.50000000  0.00000000  1
  V  V161  1  0.25000000  0.50000000  0.12500000  1
  V  V162  1  0.25000000  0.50000000  0.25000000  1
  V  V163  1  0.25000000  0.50000000  0.37500000  1
  V  V164  1  0.25000000  0.50000000  0.50000000  1
  V  V165  1  0.25000000  0.50000000  0.62500000  1
  Cr  Cr166  1  0.25000000  0.50000000  0.75000000  1
  V  V167  1  0.25000000  0.50000000  0.87500000  1
  V  V168  1  0.25000000  0.62500000  0.00000000  1
  V  V169  1  0.25000000  0.62500000  0.12500000  1
  Ti  Ti170  1  0.25000000  0.62500000  0.25000000  1
  V  V171  1  0.25000000  0.62500000  0.37500000  1
  Ti  Ti172  1  0.25000000  0.62500000  0.50000000  1
  V  V173  1  0.25000000  0.62500000  0.62500000  1
  V  V174  1  0.25000000  0.62500000  0.75000000  1
  Ti  Ti175  1  0.25000000  0.62500000  0.87500000  1
  V  V176  1  0.25000000  0.75000000  0.00000000  1
  V  V177  1  0.25000000  0.75000000  0.12500000  1
  Cr  Cr178  1  0.25000000  0.75000000  0.25000000  1
  V  V179  1  0.25000000  0.75000000  0.37500000  1
  Ti  Ti180  1  0.25000000  0.75000000  0.50000000  1
  V  V181  1  0.25000000  0.75000000  0.62500000  1
  V  V182  1  0.25000000  0.75000000  0.75000000  1
  V  V183  1  0.25000000  0.75000000  0.87500000  1
  V  V184  1  0.25000000  0.87500000  0.00000000  1
  V  V185  1  0.25000000  0.87500000  0.12500000  1
  V  V186  1  0.25000000  0.87500000  0.25000000  1
  V  V187  1  0.25000000  0.87500000  0.37500000  1
  V  V188  1  0.25000000  0.87500000  0.50000000  1
  Ti  Ti189  1  0.25000000  0.87500000  0.62500000  1
  V  V190  1  0.25000000  0.87500000  0.75000000  1
  V  V191  1  0.25000000  0.87500000  0.87500000  1
  V  V192  1  0.37500000  0.00000000  0.00000000  1
  V  V193  1  0.37500000  0.00000000  0.12500000  1
  Ti  Ti194  1  0.37500000  0.00000000  0.25000000  1
  Ti  Ti195  1  0.37500000  0.00000000  0.37500000  1
  V  V196  1  0.37500000  0.00000000  0.50000000  1
  V  V197  1  0.37500000  0.00000000  0.62500000  1
  Ti  Ti198  1  0.37500000  0.00000000  0.75000000  1
  Ti  Ti199  1  0.37500000  0.00000000  0.87500000  1
  Ti  Ti200  1  0.37500000  0.12500000  0.00000000  1
  V  V201  1  0.37500000  0.12500000  0.12500000  1
  V  V202  1  0.37500000  0.12500000  0.25000000  1
  Cr  Cr203  1  0.37500000  0.12500000  0.37500000  1
  Cr  Cr204  1  0.37500000  0.12500000  0.50000000  1
  Ti  Ti205  1  0.37500000  0.12500000  0.62500000  1
  Ti  Ti206  1  0.37500000  0.12500000  0.75000000  1
  Cr  Cr207  1  0.37500000  0.12500000  0.87500000  1
  V  V208  1  0.37500000  0.25000000  0.00000000  1
  V  V209  1  0.37500000  0.25000000  0.12500000  1
  Ti  Ti210  1  0.37500000  0.25000000  0.25000000  1
  Ti  Ti211  1  0.37500000  0.25000000  0.37500000  1
  V  V212  1  0.37500000  0.25000000  0.50000000  1
  V  V213  1  0.37500000  0.25000000  0.62500000  1
  Ti  Ti214  1  0.37500000  0.25000000  0.75000000  1
  V  V215  1  0.37500000  0.25000000  0.87500000  1
  V  V216  1  0.37500000  0.37500000  0.00000000  1
  Ti  Ti217  1  0.37500000  0.37500000  0.12500000  1
  V  V218  1  0.37500000  0.37500000  0.25000000  1
  V  V219  1  0.37500000  0.37500000  0.37500000  1
  Ti  Ti220  1  0.37500000  0.37500000  0.50000000  1
  V  V221  1  0.37500000  0.37500000  0.62500000  1
  V  V222  1  0.37500000  0.37500000  0.75000000  1
  V  V223  1  0.37500000  0.37500000  0.87500000  1
  Cr  Cr224  1  0.37500000  0.50000000  0.00000000  1
  V  V225  1  0.37500000  0.50000000  0.12500000  1
  Ti  Ti226  1  0.37500000  0.50000000  0.25000000  1
  Ti  Ti227  1  0.37500000  0.50000000  0.37500000  1
  V  V228  1  0.37500000  0.50000000  0.50000000  1
  V  V229  1  0.37500000  0.50000000  0.62500000  1
  V  V230  1  0.37500000  0.50000000  0.75000000  1
  V  V231  1  0.37500000  0.50000000  0.87500000  1
  V  V232  1  0.37500000  0.62500000  0.00000000  1
  V  V233  1  0.37500000  0.62500000  0.12500000  1
  V  V234  1  0.37500000  0.62500000  0.25000000  1
  Cr  Cr235  1  0.37500000  0.62500000  0.37500000  1
  Ti  Ti236  1  0.37500000  0.62500000  0.50000000  1
  V  V237  1  0.37500000  0.62500000  0.62500000  1
  V  V238  1  0.37500000  0.62500000  0.75000000  1
  Ti  Ti239  1  0.37500000  0.62500000  0.87500000  1
  Cr  Cr240  1  0.37500000  0.75000000  0.00000000  1
  V  V241  1  0.37500000  0.75000000  0.12500000  1
  V  V242  1  0.37500000  0.75000000  0.25000000  1
  V  V243  1  0.37500000  0.75000000  0.37500000  1
  Cr  Cr244  1  0.37500000  0.75000000  0.50000000  1
  V  V245  1  0.37500000  0.75000000  0.62500000  1
  Cr  Cr246  1  0.37500000  0.75000000  0.75000000  1
  V  V247  1  0.37500000  0.75000000  0.87500000  1
  V  V248  1  0.37500000  0.87500000  0.00000000  1
  V  V249  1  0.37500000  0.87500000  0.12500000  1
  Ti  Ti250  1  0.37500000  0.87500000  0.25000000  1
  Ti  Ti251  1  0.37500000  0.87500000  0.37500000  1
  V  V252  1  0.37500000  0.87500000  0.50000000  1
  Cr  Cr253  1  0.37500000  0.87500000  0.62500000  1
  V  V254  1  0.37500000  0.87500000  0.75000000  1
  V  V255  1  0.37500000  0.87500000  0.87500000  1
  V  V256  1  0.50000000  0.00000000  0.00000000  1
  V  V257  1  0.50000000  0.00000000  0.12500000  1
  V  V258  1  0.50000000  0.00000000  0.25000000  1
  V  V259  1  0.50000000  0.00000000  0.37500000  1
  Ti  Ti260  1  0.50000000  0.00000000  0.50000000  1
  Ti  Ti261  1  0.50000000  0.00000000  0.62500000  1
  V  V262  1  0.50000000  0.00000000  0.75000000  1
  Cr  Cr263  1  0.50000000  0.00000000  0.87500000  1
  V  V264  1  0.50000000  0.12500000  0.00000000  1
  Cr  Cr265  1  0.50000000  0.12500000  0.12500000  1
  V  V266  1  0.50000000  0.12500000  0.25000000  1
  Ti  Ti267  1  0.50000000  0.12500000  0.37500000  1
  V  V268  1  0.50000000  0.12500000  0.50000000  1
  Ti  Ti269  1  0.50000000  0.12500000  0.62500000  1
  V  V270  1  0.50000000  0.12500000  0.75000000  1
  Ti  Ti271  1  0.50000000  0.12500000  0.87500000  1
  Ti  Ti272  1  0.50000000  0.25000000  0.00000000  1
  Ti  Ti273  1  0.50000000  0.25000000  0.12500000  1
  V  V274  1  0.50000000  0.25000000  0.25000000  1
  Ti  Ti275  1  0.50000000  0.25000000  0.37500000  1
  Ti  Ti276  1  0.50000000  0.25000000  0.50000000  1
  Ti  Ti277  1  0.50000000  0.25000000  0.62500000  1
  V  V278  1  0.50000000  0.25000000  0.75000000  1
  Ti  Ti279  1  0.50000000  0.25000000  0.87500000  1
  V  V280  1  0.50000000  0.37500000  0.00000000  1
  V  V281  1  0.50000000  0.37500000  0.12500000  1
  V  V282  1  0.50000000  0.37500000  0.25000000  1
  Ti  Ti283  1  0.50000000  0.37500000  0.37500000  1
  Cr  Cr284  1  0.50000000  0.37500000  0.50000000  1
  Ti  Ti285  1  0.50000000  0.37500000  0.62500000  1
  V  V286  1  0.50000000  0.37500000  0.75000000  1
  V  V287  1  0.50000000  0.37500000  0.87500000  1
  V  V288  1  0.50000000  0.50000000  0.00000000  1
  V  V289  1  0.50000000  0.50000000  0.12500000  1
  Cr  Cr290  1  0.50000000  0.50000000  0.25000000  1
  Ti  Ti291  1  0.50000000  0.50000000  0.37500000  1
  V  V292  1  0.50000000  0.50000000  0.50000000  1
  Ti  Ti293  1  0.50000000  0.50000000  0.62500000  1
  V  V294  1  0.50000000  0.50000000  0.75000000  1
  Cr  Cr295  1  0.50000000  0.50000000  0.87500000  1
  V  V296  1  0.50000000  0.62500000  0.00000000  1
  V  V297  1  0.50000000  0.62500000  0.12500000  1
  Ti  Ti298  1  0.50000000  0.62500000  0.25000000  1
  V  V299  1  0.50000000  0.62500000  0.37500000  1
  V  V300  1  0.50000000  0.62500000  0.50000000  1
  Cr  Cr301  1  0.50000000  0.62500000  0.62500000  1
  V  V302  1  0.50000000  0.62500000  0.75000000  1
  Ti  Ti303  1  0.50000000  0.62500000  0.87500000  1
  Cr  Cr304  1  0.50000000  0.75000000  0.00000000  1
  Cr  Cr305  1  0.50000000  0.75000000  0.12500000  1
  V  V306  1  0.50000000  0.75000000  0.25000000  1
  V  V307  1  0.50000000  0.75000000  0.37500000  1
  V  V308  1  0.50000000  0.75000000  0.50000000  1
  Ti  Ti309  1  0.50000000  0.75000000  0.62500000  1
  Ti  Ti310  1  0.50000000  0.75000000  0.75000000  1
  V  V311  1  0.50000000  0.75000000  0.87500000  1
  Ti  Ti312  1  0.50000000  0.87500000  0.00000000  1
  V  V313  1  0.50000000  0.87500000  0.12500000  1
  Ti  Ti314  1  0.50000000  0.87500000  0.25000000  1
  V  V315  1  0.50000000  0.87500000  0.37500000  1
  Ti  Ti316  1  0.50000000  0.87500000  0.50000000  1
  Ti  Ti317  1  0.50000000  0.87500000  0.62500000  1
  V  V318  1  0.50000000  0.87500000  0.75000000  1
  Ti  Ti319  1  0.50000000  0.87500000  0.87500000  1
  V  V320  1  0.62500000  0.00000000  0.00000000  1
  V  V321  1  0.62500000  0.00000000  0.12500000  1
  Ti  Ti322  1  0.62500000  0.00000000  0.25000000  1
  Ti  Ti323  1  0.62500000  0.00000000  0.37500000  1
  V  V324  1  0.62500000  0.00000000  0.50000000  1
  Cr  Cr325  1  0.62500000  0.00000000  0.62500000  1
  V  V326  1  0.62500000  0.00000000  0.75000000  1
  Ti  Ti327  1  0.62500000  0.00000000  0.87500000  1
  Cr  Cr328  1  0.62500000  0.12500000  0.00000000  1
  V  V329  1  0.62500000  0.12500000  0.12500000  1
  Ti  Ti330  1  0.62500000  0.12500000  0.25000000  1
  V  V331  1  0.62500000  0.12500000  0.37500000  1
  Cr  Cr332  1  0.62500000  0.12500000  0.50000000  1
  V  V333  1  0.62500000  0.12500000  0.62500000  1
  Ti  Ti334  1  0.62500000  0.12500000  0.75000000  1
  V  V335  1  0.62500000  0.12500000  0.87500000  1
  V  V336  1  0.62500000  0.25000000  0.00000000  1
  Ti  Ti337  1  0.62500000  0.25000000  0.12500000  1
  Ti  Ti338  1  0.62500000  0.25000000  0.25000000  1
  Ti  Ti339  1  0.62500000  0.25000000  0.37500000  1
  V  V340  1  0.62500000  0.25000000  0.50000000  1
  Ti  Ti341  1  0.62500000  0.25000000  0.62500000  1
  V  V342  1  0.62500000  0.25000000  0.75000000  1
  Ti  Ti343  1  0.62500000  0.25000000  0.87500000  1
  V  V344  1  0.62500000  0.37500000  0.00000000  1
  Ti  Ti345  1  0.62500000  0.37500000  0.12500000  1
  Cr  Cr346  1  0.62500000  0.37500000  0.25000000  1
  V  V347  1  0.62500000  0.37500000  0.37500000  1
  Ti  Ti348  1  0.62500000  0.37500000  0.50000000  1
  V  V349  1  0.62500000  0.37500000  0.62500000  1
  V  V350  1  0.62500000  0.37500000  0.75000000  1
  Cr  Cr351  1  0.62500000  0.37500000  0.87500000  1
  V  V352  1  0.62500000  0.50000000  0.00000000  1
  Cr  Cr353  1  0.62500000  0.50000000  0.12500000  1
  Ti  Ti354  1  0.62500000  0.50000000  0.25000000  1
  Cr  Cr355  1  0.62500000  0.50000000  0.37500000  1
  V  V356  1  0.62500000  0.50000000  0.50000000  1
  V  V357  1  0.62500000  0.50000000  0.62500000  1
  V  V358  1  0.62500000  0.50000000  0.75000000  1
  V  V359  1  0.62500000  0.50000000  0.87500000  1
  Ti  Ti360  1  0.62500000  0.62500000  0.00000000  1
  Cr  Cr361  1  0.62500000  0.62500000  0.12500000  1
  Ti  Ti362  1  0.62500000  0.62500000  0.25000000  1
  Ti  Ti363  1  0.62500000  0.62500000  0.37500000  1
  V  V364  1  0.62500000  0.62500000  0.50000000  1
  Ti  Ti365  1  0.62500000  0.62500000  0.62500000  1
  V  V366  1  0.62500000  0.62500000  0.75000000  1
  V  V367  1  0.62500000  0.62500000  0.87500000  1
  V  V368  1  0.62500000  0.75000000  0.00000000  1
  Cr  Cr369  1  0.62500000  0.75000000  0.12500000  1
  V  V370  1  0.62500000  0.75000000  0.25000000  1
  V  V371  1  0.62500000  0.75000000  0.37500000  1
  Ti  Ti372  1  0.62500000  0.75000000  0.50000000  1
  V  V373  1  0.62500000  0.75000000  0.62500000  1
  V  V374  1  0.62500000  0.75000000  0.75000000  1
  V  V375  1  0.62500000  0.75000000  0.87500000  1
  Cr  Cr376  1  0.62500000  0.87500000  0.00000000  1
  V  V377  1  0.62500000  0.87500000  0.12500000  1
  V  V378  1  0.62500000  0.87500000  0.25000000  1
  V  V379  1  0.62500000  0.87500000  0.37500000  1
  V  V380  1  0.62500000  0.87500000  0.50000000  1
  Ti  Ti381  1  0.62500000  0.87500000  0.62500000  1
  Ti  Ti382  1  0.62500000  0.87500000  0.75000000  1
  V  V383  1  0.62500000  0.87500000  0.87500000  1
  Ti  Ti384  1  0.75000000  0.00000000  0.00000000  1
  V  V385  1  0.75000000  0.00000000  0.12500000  1
  Ti  Ti386  1  0.75000000  0.00000000  0.25000000  1
  V  V387  1  0.75000000  0.00000000  0.37500000  1
  V  V388  1  0.75000000  0.00000000  0.50000000  1
  V  V389  1  0.75000000  0.00000000  0.62500000  1
  Ti  Ti390  1  0.75000000  0.00000000  0.75000000  1
  Ti  Ti391  1  0.75000000  0.00000000  0.87500000  1
  Ti  Ti392  1  0.75000000  0.12500000  0.00000000  1
  V  V393  1  0.75000000  0.12500000  0.12500000  1
  V  V394  1  0.75000000  0.12500000  0.25000000  1
  V  V395  1  0.75000000  0.12500000  0.37500000  1
  V  V396  1  0.75000000  0.12500000  0.50000000  1
  Ti  Ti397  1  0.75000000  0.12500000  0.62500000  1
  V  V398  1  0.75000000  0.12500000  0.75000000  1
  V  V399  1  0.75000000  0.12500000  0.87500000  1
  V  V400  1  0.75000000  0.25000000  0.00000000  1
  V  V401  1  0.75000000  0.25000000  0.12500000  1
  V  V402  1  0.75000000  0.25000000  0.25000000  1
  V  V403  1  0.75000000  0.25000000  0.37500000  1
  Ti  Ti404  1  0.75000000  0.25000000  0.50000000  1
  V  V405  1  0.75000000  0.25000000  0.62500000  1
  Ti  Ti406  1  0.75000000  0.25000000  0.75000000  1
  Ti  Ti407  1  0.75000000  0.25000000  0.87500000  1
  Ti  Ti408  1  0.75000000  0.37500000  0.00000000  1
  V  V409  1  0.75000000  0.37500000  0.12500000  1
  V  V410  1  0.75000000  0.37500000  0.25000000  1
  Ti  Ti411  1  0.75000000  0.37500000  0.37500000  1
  Ti  Ti412  1  0.75000000  0.37500000  0.50000000  1
  Ti  Ti413  1  0.75000000  0.37500000  0.62500000  1
  V  V414  1  0.75000000  0.37500000  0.75000000  1
  V  V415  1  0.75000000  0.37500000  0.87500000  1
  Ti  Ti416  1  0.75000000  0.50000000  0.00000000  1
  V  V417  1  0.75000000  0.50000000  0.12500000  1
  V  V418  1  0.75000000  0.50000000  0.25000000  1
  Ti  Ti419  1  0.75000000  0.50000000  0.37500000  1
  Ti  Ti420  1  0.75000000  0.50000000  0.50000000  1
  V  V421  1  0.75000000  0.50000000  0.62500000  1
  V  V422  1  0.75000000  0.50000000  0.75000000  1
  V  V423  1  0.75000000  0.50000000  0.87500000  1
  V  V424  1  0.75000000  0.62500000  0.00000000  1
  Ti  Ti425  1  0.75000000  0.62500000  0.12500000  1
  Ti  Ti426  1  0.75000000  0.62500000  0.25000000  1
  V  V427  1  0.75000000  0.62500000  0.37500000  1
  V  V428  1  0.75000000  0.62500000  0.50000000  1
  V  V429  1  0.75000000  0.62500000  0.62500000  1
  V  V430  1  0.75000000  0.62500000  0.75000000  1
  V  V431  1  0.75000000  0.62500000  0.87500000  1
  V  V432  1  0.75000000  0.75000000  0.00000000  1
  V  V433  1  0.75000000  0.75000000  0.12500000  1
  V  V434  1  0.75000000  0.75000000  0.25000000  1
  Ti  Ti435  1  0.75000000  0.75000000  0.37500000  1
  V  V436  1  0.75000000  0.75000000  0.50000000  1
  Ti  Ti437  1  0.75000000  0.75000000  0.62500000  1
  Ti  Ti438  1  0.75000000  0.75000000  0.75000000  1
  V  V439  1  0.75000000  0.75000000  0.87500000  1
  Ti  Ti440  1  0.75000000  0.87500000  0.00000000  1
  Cr  Cr441  1  0.75000000  0.87500000  0.12500000  1
  Ti  Ti442  1  0.75000000  0.87500000  0.25000000  1
  V  V443  1  0.75000000  0.87500000  0.37500000  1
  V  V444  1  0.75000000  0.87500000  0.50000000  1
  V  V445  1  0.75000000  0.87500000  0.62500000  1
  V  V446  1  0.75000000  0.87500000  0.75000000  1
  V  V447  1  0.75000000  0.87500000  0.87500000  1
  V  V448  1  0.87500000  0.00000000  0.00000000  1
  V  V449  1  0.87500000  0.00000000  0.12500000  1
  V  V450  1  0.87500000  0.00000000  0.25000000  1
  Ti  Ti451  1  0.87500000  0.00000000  0.37500000  1
  V  V452  1  0.87500000  0.00000000  0.50000000  1
  V  V453  1  0.87500000  0.00000000  0.62500000  1
  Ti  Ti454  1  0.87500000  0.00000000  0.75000000  1
  V  V455  1  0.87500000  0.00000000  0.87500000  1
  Cr  Cr456  1  0.87500000  0.12500000  0.00000000  1
  V  V457  1  0.87500000  0.12500000  0.12500000  1
  V  V458  1  0.87500000  0.12500000  0.25000000  1
  V  V459  1  0.87500000  0.12500000  0.37500000  1
  Ti  Ti460  1  0.87500000  0.12500000  0.50000000  1
  V  V461  1  0.87500000  0.12500000  0.62500000  1
  Ti  Ti462  1  0.87500000  0.12500000  0.75000000  1
  V  V463  1  0.87500000  0.12500000  0.87500000  1
  Ti  Ti464  1  0.87500000  0.25000000  0.00000000  1
  Ti  Ti465  1  0.87500000  0.25000000  0.12500000  1
  V  V466  1  0.87500000  0.25000000  0.25000000  1
  Ti  Ti467  1  0.87500000  0.25000000  0.37500000  1
  Ti  Ti468  1  0.87500000  0.25000000  0.50000000  1
  Ti  Ti469  1  0.87500000  0.25000000  0.62500000  1
  V  V470  1  0.87500000  0.25000000  0.75000000  1
  V  V471  1  0.87500000  0.25000000  0.87500000  1
  V  V472  1  0.87500000  0.37500000  0.00000000  1
  V  V473  1  0.87500000  0.37500000  0.12500000  1
  Cr  Cr474  1  0.87500000  0.37500000  0.25000000  1
  V  V475  1  0.87500000  0.37500000  0.37500000  1
  V  V476  1  0.87500000  0.37500000  0.50000000  1
  V  V477  1  0.87500000  0.37500000  0.62500000  1
  V  V478  1  0.87500000  0.37500000  0.75000000  1
  V  V479  1  0.87500000  0.37500000  0.87500000  1
  Cr  Cr480  1  0.87500000  0.50000000  0.00000000  1
  V  V481  1  0.87500000  0.50000000  0.12500000  1
  V  V482  1  0.87500000  0.50000000  0.25000000  1
  V  V483  1  0.87500000  0.50000000  0.37500000  1
  Ti  Ti484  1  0.87500000  0.50000000  0.50000000  1
  Ti  Ti485  1  0.87500000  0.50000000  0.62500000  1
  Cr  Cr486  1  0.87500000  0.50000000  0.75000000  1
  Ti  Ti487  1  0.87500000  0.50000000  0.87500000  1
  V  V488  1  0.87500000  0.62500000  0.00000000  1
  V  V489  1  0.87500000  0.62500000  0.12500000  1
  V  V490  1  0.87500000  0.62500000  0.25000000  1
  Ti  Ti491  1  0.87500000  0.62500000  0.37500000  1
  V  V492  1  0.87500000  0.62500000  0.50000000  1
  Cr  Cr493  1  0.87500000  0.62500000  0.62500000  1
  V  V494  1  0.87500000  0.62500000  0.75000000  1
  V  V495  1  0.87500000  0.62500000  0.87500000  1
  Ti  Ti496  1  0.87500000  0.75000000  0.00000000  1
  Ti  Ti497  1  0.87500000  0.75000000  0.12500000  1
  Cr  Cr498  1  0.87500000  0.75000000  0.25000000  1
  Ti  Ti499  1  0.87500000  0.75000000  0.37500000  1
  Ti  Ti500  1  0.87500000  0.75000000  0.50000000  1
  Ti  Ti501  1  0.87500000  0.75000000  0.62500000  1
  V  V502  1  0.87500000  0.75000000  0.75000000  1
  V  V503  1  0.87500000  0.75000000  0.87500000  1
  Ti  Ti504  1  0.87500000  0.87500000  0.00000000  1
  V  V505  1  0.87500000  0.87500000  0.12500000  1
  V  V506  1  0.87500000  0.87500000  0.25000000  1
  V  V507  1  0.87500000  0.87500000  0.37500000  1
  V  V508  1  0.87500000  0.87500000  0.50000000  1
  Ti  Ti509  1  0.87500000  0.87500000  0.62500000  1
  V  V510  1  0.87500000  0.87500000  0.75000000  1
  Ti  Ti511  1  0.87500000  0.87500000  0.87500000  1
