# generated using pymatgen
data_Ti49V309Cr154
_symmetry_space_group_name_H-M   'P 1'
_cell_length_a   20.85389172
_cell_length_b   20.85389172
_cell_length_c   20.85389172
_cell_angle_alpha   109.47122063
_cell_angle_beta   109.47122063
_cell_angle_gamma   109.47122063
_symmetry_Int_Tables_number   1
_chemical_formula_structural   Ti49V309Cr154
_chemical_formula_sum   'Ti49 V309 Cr154'
_cell_volume   6981.35065600
_cell_formula_units_Z   1
loop_
 _symmetry_equiv_pos_site_id
 _symmetry_equiv_pos_as_xyz
  1  'x, y, z'
loop_
 _atom_site_type_symbol
 _atom_site_label
 _atom_site_symmetry_multiplicity
 _atom_site_fract_x
 _atom_site_fract_y
 _atom_site_fract_z
 _atom_site_occupancy
  Cr  Cr0  1  0.00000000  0.00000000  0.00000000  1
  V  V1  1  0.00000000  0.00000000  0.12500000  1
  V  V2  1  0.00000000  0.00000000  0.25000000  1
  V  V3  1  0.00000000  0.00000000  0.37500000  1
  V  V4  1  0.00000000  0.00000000  0.50000000  1
  V  V5  1  0.00000000  0.00000000  0.62500000  1
  V  V6  1  0.00000000  0.00000000  0.75000000  1
  V  V7  1  0.00000000  0.00000000  0.87500000  1
  Cr  Cr8  1  0.00000000  0.12500000  0.00000000  1
  Cr  Cr9  1  0.00000000  0.12500000  0.12500000  1
  Cr  Cr10  1  0.00000000  0.12500000  0.25000000  1
  Cr  Cr11  1  0.00000000  0.12500000  0.37500000  1
  V  V12  1  0.00000000  0.12500000  0.50000000  1
  V  V13  1  0.00000000  0.12500000  0.62500000  1
  V  V14  1  0.00000000  0.12500000  0.75000000  1
  V  V15  1  0.00000000  0.12500000  0.87500000  1
  V  V16  1  0.00000000  0.25000000  0.00000000  1
  Cr  Cr17  1  0.00000000  0.25000000  0.12500000  1
  Cr  Cr18  1  0.00000000  0.25000000  0.25000000  1
  V  V19  1  0.00000000  0.25000000  0.37500000  1
  Cr  Cr20  1  0.00000000  0.25000000  0.50000000  1
  V  V21  1  0.00000000  0.25000000  0.62500000  1
  V  V22  1  0.00000000  0.25000000  0.75000000  1
  Cr  Cr23  1  0.00000000  0.25000000  0.87500000  1
  Cr  Cr24  1  0.00000000  0.37500000  0.00000000  1
  V  V25  1  0.00000000  0.37500000  0.12500000  1
  Cr  Cr26  1  0.00000000  0.37500000  0.25000000  1
  V  V27  1  0.00000000  0.37500000  0.37500000  1
  V  V28  1  0.00000000  0.37500000  0.50000000  1
  V  V29  1  0.00000000  0.37500000  0.62500000  1
  V  V30  1  0.00000000  0.37500000  0.75000000  1
  V  V31  1  0.00000000  0.37500000  0.87500000  1
  V  V32  1  0.00000000  0.50000000  0.00000000  1
  Ti  Ti33  1  0.00000000  0.50000000  0.12500000  1
  V  V34  1  0.00000000  0.50000000  0.25000000  1
  Cr  Cr35  1  0.00000000  0.50000000  0.37500000  1
  V  V36  1  0.00000000  0.50000000  0.50000000  1
  V  V37  1  0.00000000  0.50000000  0.62500000  1
  V  V38  1  0.00000000  0.50000000  0.75000000  1
  Cr  Cr39  1  0.00000000  0.50000000  0.87500000  1
  Cr  Cr40  1  0.00000000  0.62500000  0.00000000  1
  V  V41  1  0.00000000  0.62500000  0.12500000  1
  Cr  Cr42  1  0.00000000  0.62500000  0.25000000  1
  V  V43  1  0.00000000  0.62500000  0.37500000  1
  V  V44  1  0.00000000  0.62500000  0.50000000  1
  Cr  Cr45  1  0.00000000  0.62500000  0.62500000  1
  Cr  Cr46  1  0.00000000  0.62500000  0.75000000  1
  V  V47  1  0.00000000  0.62500000  0.87500000  1
  V  V48  1  0.00000000  0.75000000  0.00000000  1
  Cr  Cr49  1  0.00000000  0.75000000  0.12500000  1
  V  V50  1  0.00000000  0.75000000  0.25000000  1
  Cr  Cr51  1  0.00000000  0.75000000  0.37500000  1
  Cr  Cr52  1  0.00000000  0.75000000  0.50000000  1
  V  V53  1  0.00000000  0.75000000  0.62500000  1
  Cr  Cr54  1  0.00000000  0.75000000  0.75000000  1
  Cr  Cr55  1  0.00000000  0.75000000  0.87500000  1
  V  V56  1  0.00000000  0.87500000  0.00000000  1
  Cr  Cr57  1  0.00000000  0.87500000  0.12500000  1
  V  V58  1  0.00000000  0.87500000  0.25000000  1
  V  V59  1  0.00000000  0.87500000  0.37500000  1
  V  V60  1  0.00000000  0.87500000  0.50000000  1
  V  V61  1  0.00000000  0.87500000  0.62500000  1
  Cr  Cr62  1  0.00000000  0.87500000  0.75000000  1
  Cr  Cr63  1  0.00000000  0.87500000  0.87500000  1
  V  V64  1  0.12500000  0.00000000  0.00000000  1
  Cr  Cr65  1  0.12500000  0.00000000  0.12500000  1
  Cr  Cr66  1  0.12500000  0.00000000  0.25000000  1
  V  V67  1  0.12500000  0.00000000  0.37500000  1
  V  V68  1  0.12500000  0.00000000  0.50000000  1
  V  V69  1  0.12500000  0.00000000  0.62500000  1
  V  V70  1  0.12500000  0.00000000  0.75000000  1
  Cr  Cr71  1  0.12500000  0.00000000  0.87500000  1
  V  V72  1  0.12500000  0.12500000  0.00000000  1
  Cr  Cr73  1  0.12500000  0.12500000  0.12500000  1
  Cr  Cr74  1  0.12500000  0.12500000  0.25000000  1
  V  V75  1  0.12500000  0.12500000  0.37500000  1
  V  V76  1  0.12500000  0.12500000  0.50000000  1
  V  V77  1  0.12500000  0.12500000  0.62500000  1
  V  V78  1  0.12500000  0.12500000  0.75000000  1
  Cr  Cr79  1  0.12500000  0.12500000  0.87500000  1
  Cr  Cr80  1  0.12500000  0.25000000  0.00000000  1
  V  V81  1  0.12500000  0.25000000  0.12500000  1
  V  V82  1  0.12500000  0.25000000  0.25000000  1
  Cr  Cr83  1  0.12500000  0.25000000  0.37500000  1
  V  V84  1  0.12500000  0.25000000  0.50000000  1
  V  V85  1  0.12500000  0.25000000  0.62500000  1
  V  V86  1  0.12500000  0.25000000  0.75000000  1
  V  V87  1  0.12500000  0.25000000  0.87500000  1
  V  V88  1  0.12500000  0.37500000  0.00000000  1
  Ti  Ti89  1  0.12500000  0.37500000  0.12500000  1
  V  V90  1  0.12500000  0.37500000  0.25000000  1
  V  V91  1  0.12500000  0.37500000  0.37500000  1
  Cr  Cr92  1  0.12500000  0.37500000  0.50000000  1
  V  V93  1  0.12500000  0.37500000  0.62500000  1
  V  V94  1  0.12500000  0.37500000  0.75000000  1
  Cr  Cr95  1  0.12500000  0.37500000  0.87500000  1
  Ti  Ti96  1  0.12500000  0.50000000  0.00000000  1
  V  V97  1  0.12500000  0.50000000  0.12500000  1
  Ti  Ti98  1  0.12500000  0.50000000  0.25000000  1
  V  V99  1  0.12500000  0.50000000  0.37500000  1
  Cr  Cr100  1  0.12500000  0.50000000  0.50000000  1
  Cr  Cr101  1  0.12500000  0.50000000  0.62500000  1
  Cr  Cr102  1  0.12500000  0.50000000  0.75000000  1
  V  V103  1  0.12500000  0.50000000  0.87500000  1
  V  V104  1  0.12500000  0.62500000  0.00000000  1
  Ti  Ti105  1  0.12500000  0.62500000  0.12500000  1
  V  V106  1  0.12500000  0.62500000  0.25000000  1
  Ti  Ti107  1  0.12500000  0.62500000  0.37500000  1
  V  V108  1  0.12500000  0.62500000  0.50000000  1
  Cr  Cr109  1  0.12500000  0.62500000  0.62500000  1
  V  V110  1  0.12500000  0.62500000  0.75000000  1
  Cr  Cr111  1  0.12500000  0.62500000  0.87500000  1
  Cr  Cr112  1  0.12500000  0.75000000  0.00000000  1
  V  V113  1  0.12500000  0.75000000  0.12500000  1
  Ti  Ti114  1  0.12500000  0.75000000  0.25000000  1
  V  V115  1  0.12500000  0.75000000  0.37500000  1
  Cr  Cr116  1  0.12500000  0.75000000  0.50000000  1
  V  V117  1  0.12500000  0.75000000  0.62500000  1
  Cr  Cr118  1  0.12500000  0.75000000  0.75000000  1
  V  V119  1  0.12500000  0.75000000  0.87500000  1
  V  V120  1  0.12500000  0.87500000  0.00000000  1
  Cr  Cr121  1  0.12500000  0.87500000  0.12500000  1
  V  V122  1  0.12500000  0.87500000  0.25000000  1
  Cr  Cr123  1  0.12500000  0.87500000  0.37500000  1
  V  V124  1  0.12500000  0.87500000  0.50000000  1
  V  V125  1  0.12500000  0.87500000  0.62500000  1
  V  V126  1  0.12500000  0.87500000  0.75000000  1
  V  V127  1  0.12500000  0.87500000  0.87500000  1
  Cr  Cr128  1  0.25000000  0.00000000  0.00000000  1
  Cr  Cr129  1  0.25000000  0.00000000  0.12500000  1
  V  V130  1  0.25000000  0.00000000  0.25000000  1
  Cr  Cr131  1  0.25000000  0.00000000  0.37500000  1
  V  V132  1  0.25000000  0.00000000  0.50000000  1
  V  V133  1  0.25000000  0.00000000  0.62500000  1
  V  V134  1  0.25000000  0.00000000  0.75000000  1
  Cr  Cr135  1  0.25000000  0.00000000  0.87500000  1
  Cr  Cr136  1  0.25000000  0.12500000  0.00000000  1
  Cr  Cr137  1  0.25000000  0.12500000  0.12500000  1
  V  V138  1  0.25000000  0.12500000  0.25000000  1
  Cr  Cr139  1  0.25000000  0.12500000  0.37500000  1
  V  V140  1  0.25000000  0.12500000  0.50000000  1
  V  V141  1  0.25000000  0.12500000  0.62500000  1
  V  V142  1  0.25000000  0.12500000  0.75000000  1
  V  V143  1  0.25000000  0.12500000  0.87500000  1
  V  V144  1  0.25000000  0.25000000  0.00000000  1
  Cr  Cr145  1  0.25000000  0.25000000  0.12500000  1
  V  V146  1  0.25000000  0.25000000  0.25000000  1
  Cr  Cr147  1  0.25000000  0.25000000  0.37500000  1
  V  V148  1  0.25000000  0.25000000  0.50000000  1
  V  V149  1  0.25000000  0.25000000  0.62500000  1
  V  V150  1  0.25000000  0.25000000  0.75000000  1
  V  V151  1  0.25000000  0.25000000  0.87500000  1
  Ti  Ti152  1  0.25000000  0.37500000  0.00000000  1
  V  V153  1  0.25000000  0.37500000  0.12500000  1
  Cr  Cr154  1  0.25000000  0.37500000  0.25000000  1
  Cr  Cr155  1  0.25000000  0.37500000  0.37500000  1
  V  V156  1  0.25000000  0.37500000  0.50000000  1
  V  V157  1  0.25000000  0.37500000  0.62500000  1
  V  V158  1  0.25000000  0.37500000  0.75000000  1
  V  V159  1  0.25000000  0.37500000  0.87500000  1
  V  V160  1  0.25000000  0.50000000  0.00000000  1
  Ti  Ti161  1  0.25000000  0.50000000  0.12500000  1
  V  V162  1  0.25000000  0.50000000  0.25000000  1
  Ti  Ti163  1  0.25000000  0.50000000  0.37500000  1
  V  V164  1  0.25000000  0.50000000  0.50000000  1
  V  V165  1  0.25000000  0.50000000  0.62500000  1
  V  V166  1  0.25000000  0.50000000  0.75000000  1
  Ti  Ti167  1  0.25000000  0.50000000  0.87500000  1
  Ti  Ti168  1  0.25000000  0.62500000  0.00000000  1
  V  V169  1  0.25000000  0.62500000  0.12500000  1
  Ti  Ti170  1  0.25000000  0.62500000  0.25000000  1
  V  V171  1  0.25000000  0.62500000  0.37500000  1
  Ti  Ti172  1  0.25000000  0.62500000  0.50000000  1
  V  V173  1  0.25000000  0.62500000  0.62500000  1
  Cr  Cr174  1  0.25000000  0.62500000  0.75000000  1
  V  V175  1  0.25000000  0.62500000  0.87500000  1
  V  V176  1  0.25000000  0.75000000  0.00000000  1
  Ti  Ti177  1  0.25000000  0.75000000  0.12500000  1
  V  V178  1  0.25000000  0.75000000  0.25000000  1
  Ti  Ti179  1  0.25000000  0.75000000  0.37500000  1
  V  V180  1  0.25000000  0.75000000  0.50000000  1
  Cr  Cr181  1  0.25000000  0.75000000  0.62500000  1
  V  V182  1  0.25000000  0.75000000  0.75000000  1
  Cr  Cr183  1  0.25000000  0.75000000  0.87500000  1
  Cr  Cr184  1  0.25000000  0.87500000  0.00000000  1
  V  V185  1  0.25000000  0.87500000  0.12500000  1
  Ti  Ti186  1  0.25000000  0.87500000  0.25000000  1
  V  V187  1  0.25000000  0.87500000  0.37500000  1
  Ti  Ti188  1  0.25000000  0.87500000  0.50000000  1
  V  V189  1  0.25000000  0.87500000  0.62500000  1
  V  V190  1  0.25000000  0.87500000  0.75000000  1
  Cr  Cr191  1  0.25000000  0.87500000  0.87500000  1
  V  V192  1  0.37500000  0.00000000  0.00000000  1
  V  V193  1  0.37500000  0.00000000  0.12500000  1
  Cr  Cr194  1  0.37500000  0.00000000  0.25000000  1
  V  V195  1  0.37500000  0.00000000  0.37500000  1
  Ti  Ti196  1  0.37500000  0.00000000  0.50000000  1
  V  V197  1  0.37500000  0.00000000  0.62500000  1
  V  V198  1  0.37500000  0.00000000  0.75000000  1
  V  V199  1  0.37500000  0.00000000  0.87500000  1
  V  V200  1  0.37500000  0.12500000  0.00000000  1
  V  V201  1  0.37500000  0.12500000  0.12500000  1
  Cr  Cr202  1  0.37500000  0.12500000  0.25000000  1
  V  V203  1  0.37500000  0.12500000  0.37500000  1
  V  V204  1  0.37500000  0.12500000  0.50000000  1
  V  V205  1  0.37500000  0.12500000  0.62500000  1
  V  V206  1  0.37500000  0.12500000  0.75000000  1
  V  V207  1  0.37500000  0.12500000  0.87500000  1
  V  V208  1  0.37500000  0.25000000  0.00000000  1
  V  V209  1  0.37500000  0.25000000  0.12500000  1
  Cr  Cr210  1  0.37500000  0.25000000  0.25000000  1
  Cr  Cr211  1  0.37500000  0.25000000  0.37500000  1
  V  V212  1  0.37500000  0.25000000  0.50000000  1
  V  V213  1  0.37500000  0.25000000  0.62500000  1
  V  V214  1  0.37500000  0.25000000  0.75000000  1
  V  V215  1  0.37500000  0.25000000  0.87500000  1
  V  V216  1  0.37500000  0.37500000  0.00000000  1
  Ti  Ti217  1  0.37500000  0.37500000  0.12500000  1
  V  V218  1  0.37500000  0.37500000  0.25000000  1
  V  V219  1  0.37500000  0.37500000  0.37500000  1
  V  V220  1  0.37500000  0.37500000  0.50000000  1
  V  V221  1  0.37500000  0.37500000  0.62500000  1
  V  V222  1  0.37500000  0.37500000  0.75000000  1
  V  V223  1  0.37500000  0.37500000  0.87500000  1
  Ti  Ti224  1  0.37500000  0.50000000  0.00000000  1
  V  V225  1  0.37500000  0.50000000  0.12500000  1
  Ti  Ti226  1  0.37500000  0.50000000  0.25000000  1
  V  V227  1  0.37500000  0.50000000  0.37500000  1
  Ti  Ti228  1  0.37500000  0.50000000  0.50000000  1
  Cr  Cr229  1  0.37500000  0.50000000  0.62500000  1
  V  V230  1  0.37500000  0.50000000  0.75000000  1
  V  V231  1  0.37500000  0.50000000  0.87500000  1
  V  V232  1  0.37500000  0.62500000  0.00000000  1
  Ti  Ti233  1  0.37500000  0.62500000  0.12500000  1
  V  V234  1  0.37500000  0.62500000  0.25000000  1
  Ti  Ti235  1  0.37500000  0.62500000  0.37500000  1
  V  V236  1  0.37500000  0.62500000  0.50000000  1
  Cr  Cr237  1  0.37500000  0.62500000  0.62500000  1
  V  V238  1  0.37500000  0.62500000  0.75000000  1
  Cr  Cr239  1  0.37500000  0.62500000  0.87500000  1
  Ti  Ti240  1  0.37500000  0.75000000  0.00000000  1
  V  V241  1  0.37500000  0.75000000  0.12500000  1
  Ti  Ti242  1  0.37500000  0.75000000  0.25000000  1
  V  V243  1  0.37500000  0.75000000  0.37500000  1
  Ti  Ti244  1  0.37500000  0.75000000  0.50000000  1
  V  V245  1  0.37500000  0.75000000  0.62500000  1
  Cr  Cr246  1  0.37500000  0.75000000  0.75000000  1
  V  V247  1  0.37500000  0.75000000  0.87500000  1
  V  V248  1  0.37500000  0.87500000  0.00000000  1
  Ti  Ti249  1  0.37500000  0.87500000  0.12500000  1
  V  V250  1  0.37500000  0.87500000  0.25000000  1
  Ti  Ti251  1  0.37500000  0.87500000  0.37500000  1
  V  V252  1  0.37500000  0.87500000  0.50000000  1
  Ti  Ti253  1  0.37500000  0.87500000  0.62500000  1
  V  V254  1  0.37500000  0.87500000  0.75000000  1
  Cr  Cr255  1  0.37500000  0.87500000  0.87500000  1
  V  V256  1  0.50000000  0.00000000  0.00000000  1
  Cr  Cr257  1  0.50000000  0.00000000  0.12500000  1
  V  V258  1  0.50000000  0.00000000  0.25000000  1
  Ti  Ti259  1  0.50000000  0.00000000  0.37500000  1
  V  V260  1  0.50000000  0.00000000  0.50000000  1
  Ti  Ti261  1  0.50000000  0.00000000  0.62500000  1
  V  V262  1  0.50000000  0.00000000  0.75000000  1
  V  V263  1  0.50000000  0.00000000  0.87500000  1
  V  V264  1  0.50000000  0.12500000  0.00000000  1
  V  V265  1  0.50000000  0.12500000  0.12500000  1
  Cr  Cr266  1  0.50000000  0.12500000  0.25000000  1
  V  V267  1  0.50000000  0.12500000  0.37500000  1
  Cr  Cr268  1  0.50000000  0.12500000  0.50000000  1
  V  V269  1  0.50000000  0.12500000  0.62500000  1
  V  V270  1  0.50000000  0.12500000  0.75000000  1
  V  V271  1  0.50000000  0.12500000  0.87500000  1
  V  V272  1  0.50000000  0.25000000  0.00000000  1
  V  V273  1  0.50000000  0.25000000  0.12500000  1
  V  V274  1  0.50000000  0.25000000  0.25000000  1
  V  V275  1  0.50000000  0.25000000  0.37500000  1
  Cr  Cr276  1  0.50000000  0.25000000  0.50000000  1
  V  V277  1  0.50000000  0.25000000  0.62500000  1
  V  V278  1  0.50000000  0.25000000  0.75000000  1
  V  V279  1  0.50000000  0.25000000  0.87500000  1
  V  V280  1  0.50000000  0.37500000  0.00000000  1
  V  V281  1  0.50000000  0.37500000  0.12500000  1
  Cr  Cr282  1  0.50000000  0.37500000  0.25000000  1
  V  V283  1  0.50000000  0.37500000  0.37500000  1
  V  V284  1  0.50000000  0.37500000  0.50000000  1
  V  V285  1  0.50000000  0.37500000  0.62500000  1
  V  V286  1  0.50000000  0.37500000  0.75000000  1
  V  V287  1  0.50000000  0.37500000  0.87500000  1
  V  V288  1  0.50000000  0.50000000  0.00000000  1
  Ti  Ti289  1  0.50000000  0.50000000  0.12500000  1
  V  V290  1  0.50000000  0.50000000  0.25000000  1
  Ti  Ti291  1  0.50000000  0.50000000  0.37500000  1
  V  V292  1  0.50000000  0.50000000  0.50000000  1
  V  V293  1  0.50000000  0.50000000  0.62500000  1
  V  V294  1  0.50000000  0.50000000  0.75000000  1
  V  V295  1  0.50000000  0.50000000  0.87500000  1
  Ti  Ti296  1  0.50000000  0.62500000  0.00000000  1
  V  V297  1  0.50000000  0.62500000  0.12500000  1
  Ti  Ti298  1  0.50000000  0.62500000  0.25000000  1
  V  V299  1  0.50000000  0.62500000  0.37500000  1
  Ti  Ti300  1  0.50000000  0.62500000  0.50000000  1
  V  V301  1  0.50000000  0.62500000  0.62500000  1
  V  V302  1  0.50000000  0.62500000  0.75000000  1
  V  V303  1  0.50000000  0.62500000  0.87500000  1
  V  V304  1  0.50000000  0.75000000  0.00000000  1
  Ti  Ti305  1  0.50000000  0.75000000  0.12500000  1
  V  V306  1  0.50000000  0.75000000  0.25000000  1
  Ti  Ti307  1  0.50000000  0.75000000  0.37500000  1
  V  V308  1  0.50000000  0.75000000  0.50000000  1
  Ti  Ti309  1  0.50000000  0.75000000  0.62500000  1
  V  V310  1  0.50000000  0.75000000  0.75000000  1
  V  V311  1  0.50000000  0.75000000  0.87500000  1
  Cr  Cr312  1  0.50000000  0.87500000  0.00000000  1
  V  V313  1  0.50000000  0.87500000  0.12500000  1
  Ti  Ti314  1  0.50000000  0.87500000  0.25000000  1
  V  V315  1  0.50000000  0.87500000  0.37500000  1
  Ti  Ti316  1  0.50000000  0.87500000  0.50000000  1
  V  V317  1  0.50000000  0.87500000  0.62500000  1
  Cr  Cr318  1  0.50000000  0.87500000  0.75000000  1
  Cr  Cr319  1  0.50000000  0.87500000  0.87500000  1
  Cr  Cr320  1  0.62500000  0.00000000  0.00000000  1
  V  V321  1  0.62500000  0.00000000  0.12500000  1
  Cr  Cr322  1  0.62500000  0.00000000  0.25000000  1
  V  V323  1  0.62500000  0.00000000  0.37500000  1
  Ti  Ti324  1  0.62500000  0.00000000  0.50000000  1
  V  V325  1  0.62500000  0.00000000  0.62500000  1
  Cr  Cr326  1  0.62500000  0.00000000  0.75000000  1
  V  V327  1  0.62500000  0.00000000  0.87500000  1
  Cr  Cr328  1  0.62500000  0.12500000  0.00000000  1
  Cr  Cr329  1  0.62500000  0.12500000  0.12500000  1
  V  V330  1  0.62500000  0.12500000  0.25000000  1
  V  V331  1  0.62500000  0.12500000  0.37500000  1
  V  V332  1  0.62500000  0.12500000  0.50000000  1
  Cr  Cr333  1  0.62500000  0.12500000  0.62500000  1
  V  V334  1  0.62500000  0.12500000  0.75000000  1
  V  V335  1  0.62500000  0.12500000  0.87500000  1
  V  V336  1  0.62500000  0.25000000  0.00000000  1
  V  V337  1  0.62500000  0.25000000  0.12500000  1
  Cr  Cr338  1  0.62500000  0.25000000  0.25000000  1
  Cr  Cr339  1  0.62500000  0.25000000  0.37500000  1
  Cr  Cr340  1  0.62500000  0.25000000  0.50000000  1
  V  V341  1  0.62500000  0.25000000  0.62500000  1
  V  V342  1  0.62500000  0.25000000  0.75000000  1
  V  V343  1  0.62500000  0.25000000  0.87500000  1
  V  V344  1  0.62500000  0.37500000  0.00000000  1
  V  V345  1  0.62500000  0.37500000  0.12500000  1
  Cr  Cr346  1  0.62500000  0.37500000  0.25000000  1
  V  V347  1  0.62500000  0.37500000  0.37500000  1
  V  V348  1  0.62500000  0.37500000  0.50000000  1
  V  V349  1  0.62500000  0.37500000  0.62500000  1
  V  V350  1  0.62500000  0.37500000  0.75000000  1
  V  V351  1  0.62500000  0.37500000  0.87500000  1
  V  V352  1  0.62500000  0.50000000  0.00000000  1
  V  V353  1  0.62500000  0.50000000  0.12500000  1
  Cr  Cr354  1  0.62500000  0.50000000  0.25000000  1
  V  V355  1  0.62500000  0.50000000  0.37500000  1
  Cr  Cr356  1  0.62500000  0.50000000  0.50000000  1
  V  V357  1  0.62500000  0.50000000  0.62500000  1
  V  V358  1  0.62500000  0.50000000  0.75000000  1
  V  V359  1  0.62500000  0.50000000  0.87500000  1
  V  V360  1  0.62500000  0.62500000  0.00000000  1
  Cr  Cr361  1  0.62500000  0.62500000  0.12500000  1
  V  V362  1  0.62500000  0.62500000  0.25000000  1
  Ti  Ti363  1  0.62500000  0.62500000  0.37500000  1
  V  V364  1  0.62500000  0.62500000  0.50000000  1
  Cr  Cr365  1  0.62500000  0.62500000  0.62500000  1
  V  V366  1  0.62500000  0.62500000  0.75000000  1
  V  V367  1  0.62500000  0.62500000  0.87500000  1
  Cr  Cr368  1  0.62500000  0.75000000  0.00000000  1
  V  V369  1  0.62500000  0.75000000  0.12500000  1
  Ti  Ti370  1  0.62500000  0.75000000  0.25000000  1
  V  V371  1  0.62500000  0.75000000  0.37500000  1
  Ti  Ti372  1  0.62500000  0.75000000  0.50000000  1
  V  V373  1  0.62500000  0.75000000  0.62500000  1
  Cr  Cr374  1  0.62500000  0.75000000  0.75000000  1
  V  V375  1  0.62500000  0.75000000  0.87500000  1
  V  V376  1  0.62500000  0.87500000  0.00000000  1
  Cr  Cr377  1  0.62500000  0.87500000  0.12500000  1
  V  V378  1  0.62500000  0.87500000  0.25000000  1
  Ti  Ti379  1  0.62500000  0.87500000  0.37500000  1
  V  V380  1  0.62500000  0.87500000  0.50000000  1
  Ti  Ti381  1  0.62500000  0.87500000  0.62500000  1
  V  V382  1  0.62500000  0.87500000  0.75000000  1
  Cr  Cr383  1  0.62500000  0.87500000  0.87500000  1
  Cr  Cr384  1  0.75000000  0.00000000  0.00000000  1
  Cr  Cr385  1  0.75000000  0.00000000  0.12500000  1
  Cr  Cr386  1  0.75000000  0.00000000  0.25000000  1
  Cr  Cr387  1  0.75000000  0.00000000  0.37500000  1
  V  V388  1  0.75000000  0.00000000  0.50000000  1
  Cr  Cr389  1  0.75000000  0.00000000  0.62500000  1
  V  V390  1  0.75000000  0.00000000  0.75000000  1
  Cr  Cr391  1  0.75000000  0.00000000  0.87500000  1
  V  V392  1  0.75000000  0.12500000  0.00000000  1
  V  V393  1  0.75000000  0.12500000  0.12500000  1
  Cr  Cr394  1  0.75000000  0.12500000  0.25000000  1
  Cr  Cr395  1  0.75000000  0.12500000  0.37500000  1
  Cr  Cr396  1  0.75000000  0.12500000  0.50000000  1
  V  V397  1  0.75000000  0.12500000  0.62500000  1
  Cr  Cr398  1  0.75000000  0.12500000  0.75000000  1
  V  V399  1  0.75000000  0.12500000  0.87500000  1
  Cr  Cr400  1  0.75000000  0.25000000  0.00000000  1
  V  V401  1  0.75000000  0.25000000  0.12500000  1
  Cr  Cr402  1  0.75000000  0.25000000  0.25000000  1
  V  V403  1  0.75000000  0.25000000  0.37500000  1
  Cr  Cr404  1  0.75000000  0.25000000  0.50000000  1
  Cr  Cr405  1  0.75000000  0.25000000  0.62500000  1
  Cr  Cr406  1  0.75000000  0.25000000  0.75000000  1
  V  V407  1  0.75000000  0.25000000  0.87500000  1
  V  V408  1  0.75000000  0.37500000  0.00000000  1
  V  V409  1  0.75000000  0.37500000  0.12500000  1
  V  V410  1  0.75000000  0.37500000  0.25000000  1
  Cr  Cr411  1  0.75000000  0.37500000  0.37500000  1
  V  V412  1  0.75000000  0.37500000  0.50000000  1
  V  V413  1  0.75000000  0.37500000  0.62500000  1
  V  V414  1  0.75000000  0.37500000  0.75000000  1
  V  V415  1  0.75000000  0.37500000  0.87500000  1
  V  V416  1  0.75000000  0.50000000  0.00000000  1
  V  V417  1  0.75000000  0.50000000  0.12500000  1
  V  V418  1  0.75000000  0.50000000  0.25000000  1
  V  V419  1  0.75000000  0.50000000  0.37500000  1
  Cr  Cr420  1  0.75000000  0.50000000  0.50000000  1
  V  V421  1  0.75000000  0.50000000  0.62500000  1
  V  V422  1  0.75000000  0.50000000  0.75000000  1
  V  V423  1  0.75000000  0.50000000  0.87500000  1
  V  V424  1  0.75000000  0.62500000  0.00000000  1
  V  V425  1  0.75000000  0.62500000  0.12500000  1
  Cr  Cr426  1  0.75000000  0.62500000  0.25000000  1
  V  V427  1  0.75000000  0.62500000  0.37500000  1
  Cr  Cr428  1  0.75000000  0.62500000  0.50000000  1
  V  V429  1  0.75000000  0.62500000  0.62500000  1
  V  V430  1  0.75000000  0.62500000  0.75000000  1
  V  V431  1  0.75000000  0.62500000  0.87500000  1
  V  V432  1  0.75000000  0.75000000  0.00000000  1
  Cr  Cr433  1  0.75000000  0.75000000  0.12500000  1
  V  V434  1  0.75000000  0.75000000  0.25000000  1
  Cr  Cr435  1  0.75000000  0.75000000  0.37500000  1
  V  V436  1  0.75000000  0.75000000  0.50000000  1
  Cr  Cr437  1  0.75000000  0.75000000  0.62500000  1
  Cr  Cr438  1  0.75000000  0.75000000  0.75000000  1
  Cr  Cr439  1  0.75000000  0.75000000  0.87500000  1
  Cr  Cr440  1  0.75000000  0.87500000  0.00000000  1
  V  V441  1  0.75000000  0.87500000  0.12500000  1
  Cr  Cr442  1  0.75000000  0.87500000  0.25000000  1
  V  V443  1  0.75000000  0.87500000  0.37500000  1
  Cr  Cr444  1  0.75000000  0.87500000  0.50000000  1
  V  V445  1  0.75000000  0.87500000  0.62500000  1
  Cr  Cr446  1  0.75000000  0.87500000  0.75000000  1
  V  V447  1  0.75000000  0.87500000  0.87500000  1
  V  V448  1  0.87500000  0.00000000  0.00000000  1
  Cr  Cr449  1  0.87500000  0.00000000  0.12500000  1
  Cr  Cr450  1  0.87500000  0.00000000  0.25000000  1
  V  V451  1  0.87500000  0.00000000  0.37500000  1
  V  V452  1  0.87500000  0.00000000  0.50000000  1
  V  V453  1  0.87500000  0.00000000  0.62500000  1
  Cr  Cr454  1  0.87500000  0.00000000  0.75000000  1
  Cr  Cr455  1  0.87500000  0.00000000  0.87500000  1
  Cr  Cr456  1  0.87500000  0.12500000  0.00000000  1
  V  V457  1  0.87500000  0.12500000  0.12500000  1
  V  V458  1  0.87500000  0.12500000  0.25000000  1
  V  V459  1  0.87500000  0.12500000  0.37500000  1
  V  V460  1  0.87500000  0.12500000  0.50000000  1
  Cr  Cr461  1  0.87500000  0.12500000  0.62500000  1
  Cr  Cr462  1  0.87500000  0.12500000  0.75000000  1
  V  V463  1  0.87500000  0.12500000  0.87500000  1
  Cr  Cr464  1  0.87500000  0.25000000  0.00000000  1
  V  V465  1  0.87500000  0.25000000  0.12500000  1
  Cr  Cr466  1  0.87500000  0.25000000  0.25000000  1
  Cr  Cr467  1  0.87500000  0.25000000  0.37500000  1
  V  V468  1  0.87500000  0.25000000  0.50000000  1
  V  V469  1  0.87500000  0.25000000  0.62500000  1
  V  V470  1  0.87500000  0.25000000  0.75000000  1
  Cr  Cr471  1  0.87500000  0.25000000  0.87500000  1
  V  V472  1  0.87500000  0.37500000  0.00000000  1
  Cr  Cr473  1  0.87500000  0.37500000  0.12500000  1
  V  V474  1  0.87500000  0.37500000  0.25000000  1
  V  V475  1  0.87500000  0.37500000  0.37500000  1
  Cr  Cr476  1  0.87500000  0.37500000  0.50000000  1
  V  V477  1  0.87500000  0.37500000  0.62500000  1
  V  V478  1  0.87500000  0.37500000  0.75000000  1
  V  V479  1  0.87500000  0.37500000  0.87500000  1
  V  V480  1  0.87500000  0.50000000  0.00000000  1
  V  V481  1  0.87500000  0.50000000  0.12500000  1
  Cr  Cr482  1  0.87500000  0.50000000  0.25000000  1
  Cr  Cr483  1  0.87500000  0.50000000  0.37500000  1
  Cr  Cr484  1  0.87500000  0.50000000  0.50000000  1
  V  V485  1  0.87500000  0.50000000  0.62500000  1
  Cr  Cr486  1  0.87500000  0.50000000  0.75000000  1
  Cr  Cr487  1  0.87500000  0.50000000  0.87500000  1
  V  V488  1  0.87500000  0.62500000  0.00000000  1
  V  V489  1  0.87500000  0.62500000  0.12500000  1
  V  V490  1  0.87500000  0.62500000  0.25000000  1
  Cr  Cr491  1  0.87500000  0.62500000  0.37500000  1
  Cr  Cr492  1  0.87500000  0.62500000  0.50000000  1
  V  V493  1  0.87500000  0.62500000  0.62500000  1
  Cr  Cr494  1  0.87500000  0.62500000  0.75000000  1
  Cr  Cr495  1  0.87500000  0.62500000  0.87500000  1
  V  V496  1  0.87500000  0.75000000  0.00000000  1
  V  V497  1  0.87500000  0.75000000  0.12500000  1
  V  V498  1  0.87500000  0.75000000  0.25000000  1
  V  V499  1  0.87500000  0.75000000  0.37500000  1
  Cr  Cr500  1  0.87500000  0.75000000  0.50000000  1
  Cr  Cr501  1  0.87500000  0.75000000  0.62500000  1
  V  V502  1  0.87500000  0.75000000  0.75000000  1
  V  V503  1  0.87500000  0.75000000  0.87500000  1
  Cr  Cr504  1  0.87500000  0.87500000  0.00000000  1
  Cr  Cr505  1  0.87500000  0.87500000  0.12500000  1
  Cr  Cr506  1  0.87500000  0.87500000  0.25000000  1
  V  V507  1  0.87500000  0.87500000  0.37500000  1
  Cr  Cr508  1  0.87500000  0.87500000  0.50000000  1
  Cr  Cr509  1  0.87500000  0.87500000  0.62500000  1
  V  V510  1  0.87500000  0.87500000  0.75000000  1
  Cr  Cr511  1  0.87500000  0.87500000  0.87500000  1
