# generated using pymatgen
data_Ti49V309Cr154
_symmetry_space_group_name_H-M   'P 1'
_cell_length_a   20.85389172
_cell_length_b   20.85389172
_cell_length_c   20.85389172
_cell_angle_alpha   109.47122063
_cell_angle_beta   109.47122063
_cell_angle_gamma   109.47122063
_symmetry_Int_Tables_number   1
_chemical_formula_structural   Ti49V309Cr154
_chemical_formula_sum   'Ti49 V309 Cr154'
_cell_volume   6981.35065600
_cell_formula_units_Z   1
loop_
 _symmetry_equiv_pos_site_id
 _symmetry_equiv_pos_as_xyz
  1  'x, y, z'
loop_
 _atom_site_type_symbol
 _atom_site_label
 _atom_site_symmetry_multiplicity
 _atom_site_fract_x
 _atom_site_fract_y
 _atom_site_fract_z
 _atom_site_occupancy
  Cr  Cr0  1  0.00000000  0.00000000  0.00000000  1
  V  V1  1  0.00000000  0.00000000  0.12500000  1
  V  V2  1  0.00000000  0.00000000  0.25000000  1
  V  V3  1  0.00000000  0.00000000  0.37500000  1
  V  V4  1  0.00000000  0.00000000  0.50000000  1
  Cr  Cr5  1  0.00000000  0.00000000  0.62500000  1
  V  V6  1  0.00000000  0.00000000  0.75000000  1
  V  V7  1  0.00000000  0.00000000  0.87500000  1
  V  V8  1  0.00000000  0.12500000  0.00000000  1
  Cr  Cr9  1  0.00000000  0.12500000  0.12500000  1
  V  V10  1  0.00000000  0.12500000  0.25000000  1
  Cr  Cr11  1  0.00000000  0.12500000  0.37500000  1
  Cr  Cr12  1  0.00000000  0.12500000  0.50000000  1
  V  V13  1  0.00000000  0.12500000  0.62500000  1
  Cr  Cr14  1  0.00000000  0.12500000  0.75000000  1
  Cr  Cr15  1  0.00000000  0.12500000  0.87500000  1
  Cr  Cr16  1  0.00000000  0.25000000  0.00000000  1
  Cr  Cr17  1  0.00000000  0.25000000  0.12500000  1
  V  V18  1  0.00000000  0.25000000  0.25000000  1
  Cr  Cr19  1  0.00000000  0.25000000  0.37500000  1
  V  V20  1  0.00000000  0.25000000  0.50000000  1
  Cr  Cr21  1  0.00000000  0.25000000  0.62500000  1
  Cr  Cr22  1  0.00000000  0.25000000  0.75000000  1
  V  V23  1  0.00000000  0.25000000  0.87500000  1
  V  V24  1  0.00000000  0.37500000  0.00000000  1
  V  V25  1  0.00000000  0.37500000  0.12500000  1
  Cr  Cr26  1  0.00000000  0.37500000  0.25000000  1
  V  V27  1  0.00000000  0.37500000  0.37500000  1
  V  V28  1  0.00000000  0.37500000  0.50000000  1
  Cr  Cr29  1  0.00000000  0.37500000  0.62500000  1
  Cr  Cr30  1  0.00000000  0.37500000  0.75000000  1
  V  V31  1  0.00000000  0.37500000  0.87500000  1
  V  V32  1  0.00000000  0.50000000  0.00000000  1
  Cr  Cr33  1  0.00000000  0.50000000  0.12500000  1
  V  V34  1  0.00000000  0.50000000  0.25000000  1
  Cr  Cr35  1  0.00000000  0.50000000  0.37500000  1
  V  V36  1  0.00000000  0.50000000  0.50000000  1
  Cr  Cr37  1  0.00000000  0.50000000  0.62500000  1
  V  V38  1  0.00000000  0.50000000  0.75000000  1
  V  V39  1  0.00000000  0.50000000  0.87500000  1
  Cr  Cr40  1  0.00000000  0.62500000  0.00000000  1
  V  V41  1  0.00000000  0.62500000  0.12500000  1
  Ti  Ti42  1  0.00000000  0.62500000  0.25000000  1
  V  V43  1  0.00000000  0.62500000  0.37500000  1
  Cr  Cr44  1  0.00000000  0.62500000  0.50000000  1
  V  V45  1  0.00000000  0.62500000  0.62500000  1
  V  V46  1  0.00000000  0.62500000  0.75000000  1
  V  V47  1  0.00000000  0.62500000  0.87500000  1
  V  V48  1  0.00000000  0.75000000  0.00000000  1
  Cr  Cr49  1  0.00000000  0.75000000  0.12500000  1
  V  V50  1  0.00000000  0.75000000  0.25000000  1
  Ti  Ti51  1  0.00000000  0.75000000  0.37500000  1
  V  V52  1  0.00000000  0.75000000  0.50000000  1
  Cr  Cr53  1  0.00000000  0.75000000  0.62500000  1
  Cr  Cr54  1  0.00000000  0.75000000  0.75000000  1
  V  V55  1  0.00000000  0.75000000  0.87500000  1
  V  V56  1  0.00000000  0.87500000  0.00000000  1
  V  V57  1  0.00000000  0.87500000  0.12500000  1
  V  V58  1  0.00000000  0.87500000  0.25000000  1
  V  V59  1  0.00000000  0.87500000  0.37500000  1
  Ti  Ti60  1  0.00000000  0.87500000  0.50000000  1
  V  V61  1  0.00000000  0.87500000  0.62500000  1
  Cr  Cr62  1  0.00000000  0.87500000  0.75000000  1
  V  V63  1  0.00000000  0.87500000  0.87500000  1
  Cr  Cr64  1  0.12500000  0.00000000  0.00000000  1
  Cr  Cr65  1  0.12500000  0.00000000  0.12500000  1
  V  V66  1  0.12500000  0.00000000  0.25000000  1
  V  V67  1  0.12500000  0.00000000  0.37500000  1
  Cr  Cr68  1  0.12500000  0.00000000  0.50000000  1
  V  V69  1  0.12500000  0.00000000  0.62500000  1
  Cr  Cr70  1  0.12500000  0.00000000  0.75000000  1
  Cr  Cr71  1  0.12500000  0.00000000  0.87500000  1
  Cr  Cr72  1  0.12500000  0.12500000  0.00000000  1
  V  V73  1  0.12500000  0.12500000  0.12500000  1
  Cr  Cr74  1  0.12500000  0.12500000  0.25000000  1
  V  V75  1  0.12500000  0.12500000  0.37500000  1
  V  V76  1  0.12500000  0.12500000  0.50000000  1
  Cr  Cr77  1  0.12500000  0.12500000  0.62500000  1
  Cr  Cr78  1  0.12500000  0.12500000  0.75000000  1
  V  V79  1  0.12500000  0.12500000  0.87500000  1
  Cr  Cr80  1  0.12500000  0.25000000  0.00000000  1
  V  V81  1  0.12500000  0.25000000  0.12500000  1
  Cr  Cr82  1  0.12500000  0.25000000  0.25000000  1
  V  V83  1  0.12500000  0.25000000  0.37500000  1
  Cr  Cr84  1  0.12500000  0.25000000  0.50000000  1
  Cr  Cr85  1  0.12500000  0.25000000  0.62500000  1
  V  V86  1  0.12500000  0.25000000  0.75000000  1
  Cr  Cr87  1  0.12500000  0.25000000  0.87500000  1
  V  V88  1  0.12500000  0.37500000  0.00000000  1
  Cr  Cr89  1  0.12500000  0.37500000  0.12500000  1
  V  V90  1  0.12500000  0.37500000  0.25000000  1
  Cr  Cr91  1  0.12500000  0.37500000  0.37500000  1
  Cr  Cr92  1  0.12500000  0.37500000  0.50000000  1
  V  V93  1  0.12500000  0.37500000  0.62500000  1
  V  V94  1  0.12500000  0.37500000  0.75000000  1
  Cr  Cr95  1  0.12500000  0.37500000  0.87500000  1
  Cr  Cr96  1  0.12500000  0.50000000  0.00000000  1
  V  V97  1  0.12500000  0.50000000  0.12500000  1
  Ti  Ti98  1  0.12500000  0.50000000  0.25000000  1
  V  V99  1  0.12500000  0.50000000  0.37500000  1
  Cr  Cr100  1  0.12500000  0.50000000  0.50000000  1
  V  V101  1  0.12500000  0.50000000  0.62500000  1
  V  V102  1  0.12500000  0.50000000  0.75000000  1
  Cr  Cr103  1  0.12500000  0.50000000  0.87500000  1
  V  V104  1  0.12500000  0.62500000  0.00000000  1
  Ti  Ti105  1  0.12500000  0.62500000  0.12500000  1
  V  V106  1  0.12500000  0.62500000  0.25000000  1
  Ti  Ti107  1  0.12500000  0.62500000  0.37500000  1
  V  V108  1  0.12500000  0.62500000  0.50000000  1
  Cr  Cr109  1  0.12500000  0.62500000  0.62500000  1
  Cr  Cr110  1  0.12500000  0.62500000  0.75000000  1
  V  V111  1  0.12500000  0.62500000  0.87500000  1
  Cr  Cr112  1  0.12500000  0.75000000  0.00000000  1
  V  V113  1  0.12500000  0.75000000  0.12500000  1
  Ti  Ti114  1  0.12500000  0.75000000  0.25000000  1
  V  V115  1  0.12500000  0.75000000  0.37500000  1
  Ti  Ti116  1  0.12500000  0.75000000  0.50000000  1
  V  V117  1  0.12500000  0.75000000  0.62500000  1
  V  V118  1  0.12500000  0.75000000  0.75000000  1
  Cr  Cr119  1  0.12500000  0.75000000  0.87500000  1
  V  V120  1  0.12500000  0.87500000  0.00000000  1
  V  V121  1  0.12500000  0.87500000  0.12500000  1
  V  V122  1  0.12500000  0.87500000  0.25000000  1
  Ti  Ti123  1  0.12500000  0.87500000  0.37500000  1
  V  V124  1  0.12500000  0.87500000  0.50000000  1
  Cr  Cr125  1  0.12500000  0.87500000  0.62500000  1
  V  V126  1  0.12500000  0.87500000  0.75000000  1
  Cr  Cr127  1  0.12500000  0.87500000  0.87500000  1
  V  V128  1  0.25000000  0.00000000  0.00000000  1
  V  V129  1  0.25000000  0.00000000  0.12500000  1
  V  V130  1  0.25000000  0.00000000  0.25000000  1
  Cr  Cr131  1  0.25000000  0.00000000  0.37500000  1
  V  V132  1  0.25000000  0.00000000  0.50000000  1
  Ti  Ti133  1  0.25000000  0.00000000  0.62500000  1
  V  V134  1  0.25000000  0.00000000  0.75000000  1
  Cr  Cr135  1  0.25000000  0.00000000  0.87500000  1
  V  V136  1  0.25000000  0.12500000  0.00000000  1
  Cr  Cr137  1  0.25000000  0.12500000  0.12500000  1
  V  V138  1  0.25000000  0.12500000  0.25000000  1
  V  V139  1  0.25000000  0.12500000  0.37500000  1
  V  V140  1  0.25000000  0.12500000  0.50000000  1
  V  V141  1  0.25000000  0.12500000  0.62500000  1
  Cr  Cr142  1  0.25000000  0.12500000  0.75000000  1
  V  V143  1  0.25000000  0.12500000  0.87500000  1
  V  V144  1  0.25000000  0.25000000  0.00000000  1
  Cr  Cr145  1  0.25000000  0.25000000  0.12500000  1
  Cr  Cr146  1  0.25000000  0.25000000  0.25000000  1
  Cr  Cr147  1  0.25000000  0.25000000  0.37500000  1
  V  V148  1  0.25000000  0.25000000  0.50000000  1
  V  V149  1  0.25000000  0.25000000  0.62500000  1
  Cr  Cr150  1  0.25000000  0.25000000  0.75000000  1
  V  V151  1  0.25000000  0.25000000  0.87500000  1
  Cr  Cr152  1  0.25000000  0.37500000  0.00000000  1
  V  V153  1  0.25000000  0.37500000  0.12500000  1
  Cr  Cr154  1  0.25000000  0.37500000  0.25000000  1
  V  V155  1  0.25000000  0.37500000  0.37500000  1
  Cr  Cr156  1  0.25000000  0.37500000  0.50000000  1
  V  V157  1  0.25000000  0.37500000  0.62500000  1
  V  V158  1  0.25000000  0.37500000  0.75000000  1
  Cr  Cr159  1  0.25000000  0.37500000  0.87500000  1
  V  V160  1  0.25000000  0.50000000  0.00000000  1
  Ti  Ti161  1  0.25000000  0.50000000  0.12500000  1
  V  V162  1  0.25000000  0.50000000  0.25000000  1
  Ti  Ti163  1  0.25000000  0.50000000  0.37500000  1
  V  V164  1  0.25000000  0.50000000  0.50000000  1
  Cr  Cr165  1  0.25000000  0.50000000  0.62500000  1
  V  V166  1  0.25000000  0.50000000  0.75000000  1
  V  V167  1  0.25000000  0.50000000  0.87500000  1
  Cr  Cr168  1  0.25000000  0.62500000  0.00000000  1
  V  V169  1  0.25000000  0.62500000  0.12500000  1
  Ti  Ti170  1  0.25000000  0.62500000  0.25000000  1
  V  V171  1  0.25000000  0.62500000  0.37500000  1
  Ti  Ti172  1  0.25000000  0.62500000  0.50000000  1
  V  V173  1  0.25000000  0.62500000  0.62500000  1
  Cr  Cr174  1  0.25000000  0.62500000  0.75000000  1
  Cr  Cr175  1  0.25000000  0.62500000  0.87500000  1
  V  V176  1  0.25000000  0.75000000  0.00000000  1
  Ti  Ti177  1  0.25000000  0.75000000  0.12500000  1
  V  V178  1  0.25000000  0.75000000  0.25000000  1
  Ti  Ti179  1  0.25000000  0.75000000  0.37500000  1
  V  V180  1  0.25000000  0.75000000  0.50000000  1
  Ti  Ti181  1  0.25000000  0.75000000  0.62500000  1
  V  V182  1  0.25000000  0.75000000  0.75000000  1
  Cr  Cr183  1  0.25000000  0.75000000  0.87500000  1
  Cr  Cr184  1  0.25000000  0.87500000  0.00000000  1
  V  V185  1  0.25000000  0.87500000  0.12500000  1
  Ti  Ti186  1  0.25000000  0.87500000  0.25000000  1
  V  V187  1  0.25000000  0.87500000  0.37500000  1
  Ti  Ti188  1  0.25000000  0.87500000  0.50000000  1
  V  V189  1  0.25000000  0.87500000  0.62500000  1
  Cr  Cr190  1  0.25000000  0.87500000  0.75000000  1
  Cr  Cr191  1  0.25000000  0.87500000  0.87500000  1
  Cr  Cr192  1  0.37500000  0.00000000  0.00000000  1
  V  V193  1  0.37500000  0.00000000  0.12500000  1
  Cr  Cr194  1  0.37500000  0.00000000  0.25000000  1
  V  V195  1  0.37500000  0.00000000  0.37500000  1
  Ti  Ti196  1  0.37500000  0.00000000  0.50000000  1
  V  V197  1  0.37500000  0.00000000  0.62500000  1
  Ti  Ti198  1  0.37500000  0.00000000  0.75000000  1
  V  V199  1  0.37500000  0.00000000  0.87500000  1
  Cr  Cr200  1  0.37500000  0.12500000  0.00000000  1
  V  V201  1  0.37500000  0.12500000  0.12500000  1
  Cr  Cr202  1  0.37500000  0.12500000  0.25000000  1
  Cr  Cr203  1  0.37500000  0.12500000  0.37500000  1
  V  V204  1  0.37500000  0.12500000  0.50000000  1
  Cr  Cr205  1  0.37500000  0.12500000  0.62500000  1
  V  V206  1  0.37500000  0.12500000  0.75000000  1
  Cr  Cr207  1  0.37500000  0.12500000  0.87500000  1
  Cr  Cr208  1  0.37500000  0.25000000  0.00000000  1
  Cr  Cr209  1  0.37500000  0.25000000  0.12500000  1
  V  V210  1  0.37500000  0.25000000  0.25000000  1
  Cr  Cr211  1  0.37500000  0.25000000  0.37500000  1
  V  V212  1  0.37500000  0.25000000  0.50000000  1
  V  V213  1  0.37500000  0.25000000  0.62500000  1
  V  V214  1  0.37500000  0.25000000  0.75000000  1
  Cr  Cr215  1  0.37500000  0.25000000  0.87500000  1
  V  V216  1  0.37500000  0.37500000  0.00000000  1
  Cr  Cr217  1  0.37500000  0.37500000  0.12500000  1
  V  V218  1  0.37500000  0.37500000  0.25000000  1
  Cr  Cr219  1  0.37500000  0.37500000  0.37500000  1
  V  V220  1  0.37500000  0.37500000  0.50000000  1
  V  V221  1  0.37500000  0.37500000  0.62500000  1
  V  V222  1  0.37500000  0.37500000  0.75000000  1
  Cr  Cr223  1  0.37500000  0.37500000  0.87500000  1
  Cr  Cr224  1  0.37500000  0.50000000  0.00000000  1
  V  V225  1  0.37500000  0.50000000  0.12500000  1
  Ti  Ti226  1  0.37500000  0.50000000  0.25000000  1
  V  V227  1  0.37500000  0.50000000  0.37500000  1
  Ti  Ti228  1  0.37500000  0.50000000  0.50000000  1
  V  V229  1  0.37500000  0.50000000  0.62500000  1
  V  V230  1  0.37500000  0.50000000  0.75000000  1
  V  V231  1  0.37500000  0.50000000  0.87500000  1
  V  V232  1  0.37500000  0.62500000  0.00000000  1
  Ti  Ti233  1  0.37500000  0.62500000  0.12500000  1
  V  V234  1  0.37500000  0.62500000  0.25000000  1
  Ti  Ti235  1  0.37500000  0.62500000  0.37500000  1
  V  V236  1  0.37500000  0.62500000  0.50000000  1
  Cr  Cr237  1  0.37500000  0.62500000  0.62500000  1
  V  V238  1  0.37500000  0.62500000  0.75000000  1
  Cr  Cr239  1  0.37500000  0.62500000  0.87500000  1
  Cr  Cr240  1  0.37500000  0.75000000  0.00000000  1
  V  V241  1  0.37500000  0.75000000  0.12500000  1
  Ti  Ti242  1  0.37500000  0.75000000  0.25000000  1
  V  V243  1  0.37500000  0.75000000  0.37500000  1
  Ti  Ti244  1  0.37500000  0.75000000  0.50000000  1
  V  V245  1  0.37500000  0.75000000  0.62500000  1
  Cr  Cr246  1  0.37500000  0.75000000  0.75000000  1
  V  V247  1  0.37500000  0.75000000  0.87500000  1
  V  V248  1  0.37500000  0.87500000  0.00000000  1
  Cr  Cr249  1  0.37500000  0.87500000  0.12500000  1
  V  V250  1  0.37500000  0.87500000  0.25000000  1
  Ti  Ti251  1  0.37500000  0.87500000  0.37500000  1
  V  V252  1  0.37500000  0.87500000  0.50000000  1
  Ti  Ti253  1  0.37500000  0.87500000  0.62500000  1
  V  V254  1  0.37500000  0.87500000  0.75000000  1
  Cr  Cr255  1  0.37500000  0.87500000  0.87500000  1
  V  V256  1  0.50000000  0.00000000  0.00000000  1
  Cr  Cr257  1  0.50000000  0.00000000  0.12500000  1
  V  V258  1  0.50000000  0.00000000  0.25000000  1
  Ti  Ti259  1  0.50000000  0.00000000  0.37500000  1
  V  V260  1  0.50000000  0.00000000  0.50000000  1
  Ti  Ti261  1  0.50000000  0.00000000  0.62500000  1
  V  V262  1  0.50000000  0.00000000  0.75000000  1
  Cr  Cr263  1  0.50000000  0.00000000  0.87500000  1
  Cr  Cr264  1  0.50000000  0.12500000  0.00000000  1
  Cr  Cr265  1  0.50000000  0.12500000  0.12500000  1
  Cr  Cr266  1  0.50000000  0.12500000  0.25000000  1
  V  V267  1  0.50000000  0.12500000  0.37500000  1
  Cr  Cr268  1  0.50000000  0.12500000  0.50000000  1
  V  V269  1  0.50000000  0.12500000  0.62500000  1
  Ti  Ti270  1  0.50000000  0.12500000  0.75000000  1
  V  V271  1  0.50000000  0.12500000  0.87500000  1
  V  V272  1  0.50000000  0.25000000  0.00000000  1
  V  V273  1  0.50000000  0.25000000  0.12500000  1
  Cr  Cr274  1  0.50000000  0.25000000  0.25000000  1
  V  V275  1  0.50000000  0.25000000  0.37500000  1
  Cr  Cr276  1  0.50000000  0.25000000  0.50000000  1
  V  V277  1  0.50000000  0.25000000  0.62500000  1
  V  V278  1  0.50000000  0.25000000  0.75000000  1
  V  V279  1  0.50000000  0.25000000  0.87500000  1
  V  V280  1  0.50000000  0.37500000  0.00000000  1
  V  V281  1  0.50000000  0.37500000  0.12500000  1
  Cr  Cr282  1  0.50000000  0.37500000  0.25000000  1
  Cr  Cr283  1  0.50000000  0.37500000  0.37500000  1
  V  V284  1  0.50000000  0.37500000  0.50000000  1
  V  V285  1  0.50000000  0.37500000  0.62500000  1
  V  V286  1  0.50000000  0.37500000  0.75000000  1
  V  V287  1  0.50000000  0.37500000  0.87500000  1
  Cr  Cr288  1  0.50000000  0.50000000  0.00000000  1
  Cr  Cr289  1  0.50000000  0.50000000  0.12500000  1
  V  V290  1  0.50000000  0.50000000  0.25000000  1
  Cr  Cr291  1  0.50000000  0.50000000  0.37500000  1
  V  V292  1  0.50000000  0.50000000  0.50000000  1
  V  V293  1  0.50000000  0.50000000  0.62500000  1
  V  V294  1  0.50000000  0.50000000  0.75000000  1
  V  V295  1  0.50000000  0.50000000  0.87500000  1
  V  V296  1  0.50000000  0.62500000  0.00000000  1
  V  V297  1  0.50000000  0.62500000  0.12500000  1
  Ti  Ti298  1  0.50000000  0.62500000  0.25000000  1
  V  V299  1  0.50000000  0.62500000  0.37500000  1
  Ti  Ti300  1  0.50000000  0.62500000  0.50000000  1
  V  V301  1  0.50000000  0.62500000  0.62500000  1
  V  V302  1  0.50000000  0.62500000  0.75000000  1
  V  V303  1  0.50000000  0.62500000  0.87500000  1
  V  V304  1  0.50000000  0.75000000  0.00000000  1
  Ti  Ti305  1  0.50000000  0.75000000  0.12500000  1
  V  V306  1  0.50000000  0.75000000  0.25000000  1
  Ti  Ti307  1  0.50000000  0.75000000  0.37500000  1
  V  V308  1  0.50000000  0.75000000  0.50000000  1
  Ti  Ti309  1  0.50000000  0.75000000  0.62500000  1
  V  V310  1  0.50000000  0.75000000  0.75000000  1
  V  V311  1  0.50000000  0.75000000  0.87500000  1
  Cr  Cr312  1  0.50000000  0.87500000  0.00000000  1
  V  V313  1  0.50000000  0.87500000  0.12500000  1
  Ti  Ti314  1  0.50000000  0.87500000  0.25000000  1
  V  V315  1  0.50000000  0.87500000  0.37500000  1
  Ti  Ti316  1  0.50000000  0.87500000  0.50000000  1
  V  V317  1  0.50000000  0.87500000  0.62500000  1
  Ti  Ti318  1  0.50000000  0.87500000  0.75000000  1
  V  V319  1  0.50000000  0.87500000  0.87500000  1
  V  V320  1  0.62500000  0.00000000  0.00000000  1
  V  V321  1  0.62500000  0.00000000  0.12500000  1
  Cr  Cr322  1  0.62500000  0.00000000  0.25000000  1
  V  V323  1  0.62500000  0.00000000  0.37500000  1
  Ti  Ti324  1  0.62500000  0.00000000  0.50000000  1
  V  V325  1  0.62500000  0.00000000  0.62500000  1
  Ti  Ti326  1  0.62500000  0.00000000  0.75000000  1
  V  V327  1  0.62500000  0.00000000  0.87500000  1
  V  V328  1  0.62500000  0.12500000  0.00000000  1
  V  V329  1  0.62500000  0.12500000  0.12500000  1
  Cr  Cr330  1  0.62500000  0.12500000  0.25000000  1
  Cr  Cr331  1  0.62500000  0.12500000  0.37500000  1
  V  V332  1  0.62500000  0.12500000  0.50000000  1
  Cr  Cr333  1  0.62500000  0.12500000  0.62500000  1
  V  V334  1  0.62500000  0.12500000  0.75000000  1
  Cr  Cr335  1  0.62500000  0.12500000  0.87500000  1
  V  V336  1  0.62500000  0.25000000  0.00000000  1
  Cr  Cr337  1  0.62500000  0.25000000  0.12500000  1
  V  V338  1  0.62500000  0.25000000  0.25000000  1
  V  V339  1  0.62500000  0.25000000  0.37500000  1
  V  V340  1  0.62500000  0.25000000  0.50000000  1
  V  V341  1  0.62500000  0.25000000  0.62500000  1
  Cr  Cr342  1  0.62500000  0.25000000  0.75000000  1
  V  V343  1  0.62500000  0.25000000  0.87500000  1
  V  V344  1  0.62500000  0.37500000  0.00000000  1
  V  V345  1  0.62500000  0.37500000  0.12500000  1
  Cr  Cr346  1  0.62500000  0.37500000  0.25000000  1
  Cr  Cr347  1  0.62500000  0.37500000  0.37500000  1
  Cr  Cr348  1  0.62500000  0.37500000  0.50000000  1
  V  V349  1  0.62500000  0.37500000  0.62500000  1
  V  V350  1  0.62500000  0.37500000  0.75000000  1
  V  V351  1  0.62500000  0.37500000  0.87500000  1
  V  V352  1  0.62500000  0.50000000  0.00000000  1
  V  V353  1  0.62500000  0.50000000  0.12500000  1
  Cr  Cr354  1  0.62500000  0.50000000  0.25000000  1
  V  V355  1  0.62500000  0.50000000  0.37500000  1
  V  V356  1  0.62500000  0.50000000  0.50000000  1
  V  V357  1  0.62500000  0.50000000  0.62500000  1
  V  V358  1  0.62500000  0.50000000  0.75000000  1
  V  V359  1  0.62500000  0.50000000  0.87500000  1
  V  V360  1  0.62500000  0.62500000  0.00000000  1
  V  V361  1  0.62500000  0.62500000  0.12500000  1
  V  V362  1  0.62500000  0.62500000  0.25000000  1
  Ti  Ti363  1  0.62500000  0.62500000  0.37500000  1
  V  V364  1  0.62500000  0.62500000  0.50000000  1
  V  V365  1  0.62500000  0.62500000  0.62500000  1
  V  V366  1  0.62500000  0.62500000  0.75000000  1
  V  V367  1  0.62500000  0.62500000  0.87500000  1
  V  V368  1  0.62500000  0.75000000  0.00000000  1
  V  V369  1  0.62500000  0.75000000  0.12500000  1
  Cr  Cr370  1  0.62500000  0.75000000  0.25000000  1
  V  V371  1  0.62500000  0.75000000  0.37500000  1
  Ti  Ti372  1  0.62500000  0.75000000  0.50000000  1
  V  V373  1  0.62500000  0.75000000  0.62500000  1
  V  V374  1  0.62500000  0.75000000  0.75000000  1
  V  V375  1  0.62500000  0.75000000  0.87500000  1
  V  V376  1  0.62500000  0.87500000  0.00000000  1
  V  V377  1  0.62500000  0.87500000  0.12500000  1
  V  V378  1  0.62500000  0.87500000  0.25000000  1
  Ti  Ti379  1  0.62500000  0.87500000  0.37500000  1
  V  V380  1  0.62500000  0.87500000  0.50000000  1
  Ti  Ti381  1  0.62500000  0.87500000  0.62500000  1
  V  V382  1  0.62500000  0.87500000  0.75000000  1
  V  V383  1  0.62500000  0.87500000  0.87500000  1
  V  V384  1  0.75000000  0.00000000  0.00000000  1
  V  V385  1  0.75000000  0.00000000  0.12500000  1
  V  V386  1  0.75000000  0.00000000  0.25000000  1
  Cr  Cr387  1  0.75000000  0.00000000  0.37500000  1
  V  V388  1  0.75000000  0.00000000  0.50000000  1
  Ti  Ti389  1  0.75000000  0.00000000  0.62500000  1
  V  V390  1  0.75000000  0.00000000  0.75000000  1
  Cr  Cr391  1  0.75000000  0.00000000  0.87500000  1
  V  V392  1  0.75000000  0.12500000  0.00000000  1
  V  V393  1  0.75000000  0.12500000  0.12500000  1
  Cr  Cr394  1  0.75000000  0.12500000  0.25000000  1
  V  V395  1  0.75000000  0.12500000  0.37500000  1
  Cr  Cr396  1  0.75000000  0.12500000  0.50000000  1
  V  V397  1  0.75000000  0.12500000  0.62500000  1
  Cr  Cr398  1  0.75000000  0.12500000  0.75000000  1
  V  V399  1  0.75000000  0.12500000  0.87500000  1
  Cr  Cr400  1  0.75000000  0.25000000  0.00000000  1
  Cr  Cr401  1  0.75000000  0.25000000  0.12500000  1
  Cr  Cr402  1  0.75000000  0.25000000  0.25000000  1
  V  V403  1  0.75000000  0.25000000  0.37500000  1
  Cr  Cr404  1  0.75000000  0.25000000  0.50000000  1
  Cr  Cr405  1  0.75000000  0.25000000  0.62500000  1
  V  V406  1  0.75000000  0.25000000  0.75000000  1
  V  V407  1  0.75000000  0.25000000  0.87500000  1
  V  V408  1  0.75000000  0.37500000  0.00000000  1
  V  V409  1  0.75000000  0.37500000  0.12500000  1
  V  V410  1  0.75000000  0.37500000  0.25000000  1
  Cr  Cr411  1  0.75000000  0.37500000  0.37500000  1
  Cr  Cr412  1  0.75000000  0.37500000  0.50000000  1
  Cr  Cr413  1  0.75000000  0.37500000  0.62500000  1
  V  V414  1  0.75000000  0.37500000  0.75000000  1
  V  V415  1  0.75000000  0.37500000  0.87500000  1
  V  V416  1  0.75000000  0.50000000  0.00000000  1
  V  V417  1  0.75000000  0.50000000  0.12500000  1
  V  V418  1  0.75000000  0.50000000  0.25000000  1
  V  V419  1  0.75000000  0.50000000  0.37500000  1
  Cr  Cr420  1  0.75000000  0.50000000  0.50000000  1
  V  V421  1  0.75000000  0.50000000  0.62500000  1
  V  V422  1  0.75000000  0.50000000  0.75000000  1
  V  V423  1  0.75000000  0.50000000  0.87500000  1
  V  V424  1  0.75000000  0.62500000  0.00000000  1
  V  V425  1  0.75000000  0.62500000  0.12500000  1
  V  V426  1  0.75000000  0.62500000  0.25000000  1
  V  V427  1  0.75000000  0.62500000  0.37500000  1
  Cr  Cr428  1  0.75000000  0.62500000  0.50000000  1
  V  V429  1  0.75000000  0.62500000  0.62500000  1
  V  V430  1  0.75000000  0.62500000  0.75000000  1
  V  V431  1  0.75000000  0.62500000  0.87500000  1
  V  V432  1  0.75000000  0.75000000  0.00000000  1
  V  V433  1  0.75000000  0.75000000  0.12500000  1
  V  V434  1  0.75000000  0.75000000  0.25000000  1
  Cr  Cr435  1  0.75000000  0.75000000  0.37500000  1
  V  V436  1  0.75000000  0.75000000  0.50000000  1
  Cr  Cr437  1  0.75000000  0.75000000  0.62500000  1
  V  V438  1  0.75000000  0.75000000  0.75000000  1
  V  V439  1  0.75000000  0.75000000  0.87500000  1
  V  V440  1  0.75000000  0.87500000  0.00000000  1
  V  V441  1  0.75000000  0.87500000  0.12500000  1
  V  V442  1  0.75000000  0.87500000  0.25000000  1
  V  V443  1  0.75000000  0.87500000  0.37500000  1
  Ti  Ti444  1  0.75000000  0.87500000  0.50000000  1
  V  V445  1  0.75000000  0.87500000  0.62500000  1
  Cr  Cr446  1  0.75000000  0.87500000  0.75000000  1
  V  V447  1  0.75000000  0.87500000  0.87500000  1
  V  V448  1  0.87500000  0.00000000  0.00000000  1
  V  V449  1  0.87500000  0.00000000  0.12500000  1
  V  V450  1  0.87500000  0.00000000  0.25000000  1
  V  V451  1  0.87500000  0.00000000  0.37500000  1
  Ti  Ti452  1  0.87500000  0.00000000  0.50000000  1
  V  V453  1  0.87500000  0.00000000  0.62500000  1
  Cr  Cr454  1  0.87500000  0.00000000  0.75000000  1
  Cr  Cr455  1  0.87500000  0.00000000  0.87500000  1
  V  V456  1  0.87500000  0.12500000  0.00000000  1
  V  V457  1  0.87500000  0.12500000  0.12500000  1
  V  V458  1  0.87500000  0.12500000  0.25000000  1
  Cr  Cr459  1  0.87500000  0.12500000  0.37500000  1
  V  V460  1  0.87500000  0.12500000  0.50000000  1
  Cr  Cr461  1  0.87500000  0.12500000  0.62500000  1
  V  V462  1  0.87500000  0.12500000  0.75000000  1
  V  V463  1  0.87500000  0.12500000  0.87500000  1
  V  V464  1  0.87500000  0.25000000  0.00000000  1
  V  V465  1  0.87500000  0.25000000  0.12500000  1
  V  V466  1  0.87500000  0.25000000  0.25000000  1
  Cr  Cr467  1  0.87500000  0.25000000  0.37500000  1
  Cr  Cr468  1  0.87500000  0.25000000  0.50000000  1
  V  V469  1  0.87500000  0.25000000  0.62500000  1
  Cr  Cr470  1  0.87500000  0.25000000  0.75000000  1
  Cr  Cr471  1  0.87500000  0.25000000  0.87500000  1
  Cr  Cr472  1  0.87500000  0.37500000  0.00000000  1
  Cr  Cr473  1  0.87500000  0.37500000  0.12500000  1
  V  V474  1  0.87500000  0.37500000  0.25000000  1
  Cr  Cr475  1  0.87500000  0.37500000  0.37500000  1
  Cr  Cr476  1  0.87500000  0.37500000  0.50000000  1
  V  V477  1  0.87500000  0.37500000  0.62500000  1
  Cr  Cr478  1  0.87500000  0.37500000  0.75000000  1
  V  V479  1  0.87500000  0.37500000  0.87500000  1
  V  V480  1  0.87500000  0.50000000  0.00000000  1
  V  V481  1  0.87500000  0.50000000  0.12500000  1
  V  V482  1  0.87500000  0.50000000  0.25000000  1
  Cr  Cr483  1  0.87500000  0.50000000  0.37500000  1
  V  V484  1  0.87500000  0.50000000  0.50000000  1
  Cr  Cr485  1  0.87500000  0.50000000  0.62500000  1
  Cr  Cr486  1  0.87500000  0.50000000  0.75000000  1
  V  V487  1  0.87500000  0.50000000  0.87500000  1
  V  V488  1  0.87500000  0.62500000  0.00000000  1
  V  V489  1  0.87500000  0.62500000  0.12500000  1
  V  V490  1  0.87500000  0.62500000  0.25000000  1
  V  V491  1  0.87500000  0.62500000  0.37500000  1
  V  V492  1  0.87500000  0.62500000  0.50000000  1
  V  V493  1  0.87500000  0.62500000  0.62500000  1
  Cr  Cr494  1  0.87500000  0.62500000  0.75000000  1
  V  V495  1  0.87500000  0.62500000  0.87500000  1
  V  V496  1  0.87500000  0.75000000  0.00000000  1
  V  V497  1  0.87500000  0.75000000  0.12500000  1
  V  V498  1  0.87500000  0.75000000  0.25000000  1
  V  V499  1  0.87500000  0.75000000  0.37500000  1
  V  V500  1  0.87500000  0.75000000  0.50000000  1
  V  V501  1  0.87500000  0.75000000  0.62500000  1
  V  V502  1  0.87500000  0.75000000  0.75000000  1
  V  V503  1  0.87500000  0.75000000  0.87500000  1
  V  V504  1  0.87500000  0.87500000  0.00000000  1
  V  V505  1  0.87500000  0.87500000  0.12500000  1
  V  V506  1  0.87500000  0.87500000  0.25000000  1
  V  V507  1  0.87500000  0.87500000  0.37500000  1
  V  V508  1  0.87500000  0.87500000  0.50000000  1
  Cr  Cr509  1  0.87500000  0.87500000  0.62500000  1
  V  V510  1  0.87500000  0.87500000  0.75000000  1
  V  V511  1  0.87500000  0.87500000  0.87500000  1
