# generated using pymatgen
data_Ti57(V6Cr)65
_symmetry_space_group_name_H-M   'P 1'
_cell_length_a   20.85389172
_cell_length_b   20.85389172
_cell_length_c   20.85389172
_cell_angle_alpha   109.47122063
_cell_angle_beta   109.47122063
_cell_angle_gamma   109.47122063
_symmetry_Int_Tables_number   1
_chemical_formula_structural   Ti57(V6Cr)65
_chemical_formula_sum   'Ti57 V390 Cr65'
_cell_volume   6981.35065600
_cell_formula_units_Z   1
loop_
 _symmetry_equiv_pos_site_id
 _symmetry_equiv_pos_as_xyz
  1  'x, y, z'
loop_
 _atom_site_type_symbol
 _atom_site_label
 _atom_site_symmetry_multiplicity
 _atom_site_fract_x
 _atom_site_fract_y
 _atom_site_fract_z
 _atom_site_occupancy
  V  V0  1  0.00000000  0.00000000  0.00000000  1
  V  V1  1  0.00000000  0.00000000  0.12500000  1
  V  V2  1  0.00000000  0.00000000  0.25000000  1
  V  V3  1  0.00000000  0.00000000  0.37500000  1
  V  V4  1  0.00000000  0.00000000  0.50000000  1
  Cr  Cr5  1  0.00000000  0.00000000  0.62500000  1
  V  V6  1  0.00000000  0.00000000  0.75000000  1
  V  V7  1  0.00000000  0.00000000  0.87500000  1
  V  V8  1  0.00000000  0.12500000  0.00000000  1
  V  V9  1  0.00000000  0.12500000  0.12500000  1
  Cr  Cr10  1  0.00000000  0.12500000  0.25000000  1
  V  V11  1  0.00000000  0.12500000  0.37500000  1
  Cr  Cr12  1  0.00000000  0.12500000  0.50000000  1
  V  V13  1  0.00000000  0.12500000  0.62500000  1
  V  V14  1  0.00000000  0.12500000  0.75000000  1
  V  V15  1  0.00000000  0.12500000  0.87500000  1
  V  V16  1  0.00000000  0.25000000  0.00000000  1
  V  V17  1  0.00000000  0.25000000  0.12500000  1
  V  V18  1  0.00000000  0.25000000  0.25000000  1
  Cr  Cr19  1  0.00000000  0.25000000  0.37500000  1
  Cr  Cr20  1  0.00000000  0.25000000  0.50000000  1
  V  V21  1  0.00000000  0.25000000  0.62500000  1
  V  V22  1  0.00000000  0.25000000  0.75000000  1
  V  V23  1  0.00000000  0.25000000  0.87500000  1
  V  V24  1  0.00000000  0.37500000  0.00000000  1
  V  V25  1  0.00000000  0.37500000  0.12500000  1
  V  V26  1  0.00000000  0.37500000  0.25000000  1
  V  V27  1  0.00000000  0.37500000  0.37500000  1
  V  V28  1  0.00000000  0.37500000  0.50000000  1
  V  V29  1  0.00000000  0.37500000  0.62500000  1
  V  V30  1  0.00000000  0.37500000  0.75000000  1
  V  V31  1  0.00000000  0.37500000  0.87500000  1
  V  V32  1  0.00000000  0.50000000  0.00000000  1
  V  V33  1  0.00000000  0.50000000  0.12500000  1
  V  V34  1  0.00000000  0.50000000  0.25000000  1
  V  V35  1  0.00000000  0.50000000  0.37500000  1
  V  V36  1  0.00000000  0.50000000  0.50000000  1
  V  V37  1  0.00000000  0.50000000  0.62500000  1
  V  V38  1  0.00000000  0.50000000  0.75000000  1
  V  V39  1  0.00000000  0.50000000  0.87500000  1
  V  V40  1  0.00000000  0.62500000  0.00000000  1
  V  V41  1  0.00000000  0.62500000  0.12500000  1
  V  V42  1  0.00000000  0.62500000  0.25000000  1
  V  V43  1  0.00000000  0.62500000  0.37500000  1
  V  V44  1  0.00000000  0.62500000  0.50000000  1
  V  V45  1  0.00000000  0.62500000  0.62500000  1
  V  V46  1  0.00000000  0.62500000  0.75000000  1
  V  V47  1  0.00000000  0.62500000  0.87500000  1
  V  V48  1  0.00000000  0.75000000  0.00000000  1
  Cr  Cr49  1  0.00000000  0.75000000  0.12500000  1
  V  V50  1  0.00000000  0.75000000  0.25000000  1
  V  V51  1  0.00000000  0.75000000  0.37500000  1
  V  V52  1  0.00000000  0.75000000  0.50000000  1
  V  V53  1  0.00000000  0.75000000  0.62500000  1
  V  V54  1  0.00000000  0.75000000  0.75000000  1
  V  V55  1  0.00000000  0.75000000  0.87500000  1
  Cr  Cr56  1  0.00000000  0.87500000  0.00000000  1
  V  V57  1  0.00000000  0.87500000  0.12500000  1
  V  V58  1  0.00000000  0.87500000  0.25000000  1
  V  V59  1  0.00000000  0.87500000  0.37500000  1
  V  V60  1  0.00000000  0.87500000  0.50000000  1
  V  V61  1  0.00000000  0.87500000  0.62500000  1
  V  V62  1  0.00000000  0.87500000  0.75000000  1
  V  V63  1  0.00000000  0.87500000  0.87500000  1
  V  V64  1  0.12500000  0.00000000  0.00000000  1
  Cr  Cr65  1  0.12500000  0.00000000  0.12500000  1
  V  V66  1  0.12500000  0.00000000  0.25000000  1
  V  V67  1  0.12500000  0.00000000  0.37500000  1
  V  V68  1  0.12500000  0.00000000  0.50000000  1
  V  V69  1  0.12500000  0.00000000  0.62500000  1
  V  V70  1  0.12500000  0.00000000  0.75000000  1
  Cr  Cr71  1  0.12500000  0.00000000  0.87500000  1
  V  V72  1  0.12500000  0.12500000  0.00000000  1
  V  V73  1  0.12500000  0.12500000  0.12500000  1
  V  V74  1  0.12500000  0.12500000  0.25000000  1
  Cr  Cr75  1  0.12500000  0.12500000  0.37500000  1
  V  V76  1  0.12500000  0.12500000  0.50000000  1
  Cr  Cr77  1  0.12500000  0.12500000  0.62500000  1
  Cr  Cr78  1  0.12500000  0.12500000  0.75000000  1
  V  V79  1  0.12500000  0.12500000  0.87500000  1
  V  V80  1  0.12500000  0.25000000  0.00000000  1
  V  V81  1  0.12500000  0.25000000  0.12500000  1
  V  V82  1  0.12500000  0.25000000  0.25000000  1
  V  V83  1  0.12500000  0.25000000  0.37500000  1
  V  V84  1  0.12500000  0.25000000  0.50000000  1
  Cr  Cr85  1  0.12500000  0.25000000  0.62500000  1
  Cr  Cr86  1  0.12500000  0.25000000  0.75000000  1
  V  V87  1  0.12500000  0.25000000  0.87500000  1
  V  V88  1  0.12500000  0.37500000  0.00000000  1
  V  V89  1  0.12500000  0.37500000  0.12500000  1
  V  V90  1  0.12500000  0.37500000  0.25000000  1
  V  V91  1  0.12500000  0.37500000  0.37500000  1
  V  V92  1  0.12500000  0.37500000  0.50000000  1
  V  V93  1  0.12500000  0.37500000  0.62500000  1
  V  V94  1  0.12500000  0.37500000  0.75000000  1
  V  V95  1  0.12500000  0.37500000  0.87500000  1
  V  V96  1  0.12500000  0.50000000  0.00000000  1
  V  V97  1  0.12500000  0.50000000  0.12500000  1
  V  V98  1  0.12500000  0.50000000  0.25000000  1
  V  V99  1  0.12500000  0.50000000  0.37500000  1
  V  V100  1  0.12500000  0.50000000  0.50000000  1
  V  V101  1  0.12500000  0.50000000  0.62500000  1
  V  V102  1  0.12500000  0.50000000  0.75000000  1
  V  V103  1  0.12500000  0.50000000  0.87500000  1
  V  V104  1  0.12500000  0.62500000  0.00000000  1
  V  V105  1  0.12500000  0.62500000  0.12500000  1
  V  V106  1  0.12500000  0.62500000  0.25000000  1
  V  V107  1  0.12500000  0.62500000  0.37500000  1
  V  V108  1  0.12500000  0.62500000  0.50000000  1
  V  V109  1  0.12500000  0.62500000  0.62500000  1
  Cr  Cr110  1  0.12500000  0.62500000  0.75000000  1
  V  V111  1  0.12500000  0.62500000  0.87500000  1
  V  V112  1  0.12500000  0.75000000  0.00000000  1
  V  V113  1  0.12500000  0.75000000  0.12500000  1
  V  V114  1  0.12500000  0.75000000  0.25000000  1
  V  V115  1  0.12500000  0.75000000  0.37500000  1
  V  V116  1  0.12500000  0.75000000  0.50000000  1
  V  V117  1  0.12500000  0.75000000  0.62500000  1
  V  V118  1  0.12500000  0.75000000  0.75000000  1
  Cr  Cr119  1  0.12500000  0.75000000  0.87500000  1
  Cr  Cr120  1  0.12500000  0.87500000  0.00000000  1
  V  V121  1  0.12500000  0.87500000  0.12500000  1
  V  V122  1  0.12500000  0.87500000  0.25000000  1
  V  V123  1  0.12500000  0.87500000  0.37500000  1
  V  V124  1  0.12500000  0.87500000  0.50000000  1
  V  V125  1  0.12500000  0.87500000  0.62500000  1
  V  V126  1  0.12500000  0.87500000  0.75000000  1
  V  V127  1  0.12500000  0.87500000  0.87500000  1
  Ti  Ti128  1  0.25000000  0.00000000  0.00000000  1
  V  V129  1  0.25000000  0.00000000  0.12500000  1
  V  V130  1  0.25000000  0.00000000  0.25000000  1
  V  V131  1  0.25000000  0.00000000  0.37500000  1
  V  V132  1  0.25000000  0.00000000  0.50000000  1
  V  V133  1  0.25000000  0.00000000  0.62500000  1
  Cr  Cr134  1  0.25000000  0.00000000  0.75000000  1
  V  V135  1  0.25000000  0.00000000  0.87500000  1
  V  V136  1  0.25000000  0.12500000  0.00000000  1
  Cr  Cr137  1  0.25000000  0.12500000  0.12500000  1
  V  V138  1  0.25000000  0.12500000  0.25000000  1
  V  V139  1  0.25000000  0.12500000  0.37500000  1
  V  V140  1  0.25000000  0.12500000  0.50000000  1
  V  V141  1  0.25000000  0.12500000  0.62500000  1
  V  V142  1  0.25000000  0.12500000  0.75000000  1
  Cr  Cr143  1  0.25000000  0.12500000  0.87500000  1
  V  V144  1  0.25000000  0.25000000  0.00000000  1
  V  V145  1  0.25000000  0.25000000  0.12500000  1
  V  V146  1  0.25000000  0.25000000  0.25000000  1
  V  V147  1  0.25000000  0.25000000  0.37500000  1
  V  V148  1  0.25000000  0.25000000  0.50000000  1
  V  V149  1  0.25000000  0.25000000  0.62500000  1
  Cr  Cr150  1  0.25000000  0.25000000  0.75000000  1
  V  V151  1  0.25000000  0.25000000  0.87500000  1
  V  V152  1  0.25000000  0.37500000  0.00000000  1
  V  V153  1  0.25000000  0.37500000  0.12500000  1
  V  V154  1  0.25000000  0.37500000  0.25000000  1
  V  V155  1  0.25000000  0.37500000  0.37500000  1
  V  V156  1  0.25000000  0.37500000  0.50000000  1
  V  V157  1  0.25000000  0.37500000  0.62500000  1
  V  V158  1  0.25000000  0.37500000  0.75000000  1
  Cr  Cr159  1  0.25000000  0.37500000  0.87500000  1
  Cr  Cr160  1  0.25000000  0.50000000  0.00000000  1
  V  V161  1  0.25000000  0.50000000  0.12500000  1
  V  V162  1  0.25000000  0.50000000  0.25000000  1
  V  V163  1  0.25000000  0.50000000  0.37500000  1
  V  V164  1  0.25000000  0.50000000  0.50000000  1
  V  V165  1  0.25000000  0.50000000  0.62500000  1
  Ti  Ti166  1  0.25000000  0.50000000  0.75000000  1
  V  V167  1  0.25000000  0.50000000  0.87500000  1
  V  V168  1  0.25000000  0.62500000  0.00000000  1
  V  V169  1  0.25000000  0.62500000  0.12500000  1
  V  V170  1  0.25000000  0.62500000  0.25000000  1
  V  V171  1  0.25000000  0.62500000  0.37500000  1
  V  V172  1  0.25000000  0.62500000  0.50000000  1
  Cr  Cr173  1  0.25000000  0.62500000  0.62500000  1
  V  V174  1  0.25000000  0.62500000  0.75000000  1
  Ti  Ti175  1  0.25000000  0.62500000  0.87500000  1
  Ti  Ti176  1  0.25000000  0.75000000  0.00000000  1
  V  V177  1  0.25000000  0.75000000  0.12500000  1
  V  V178  1  0.25000000  0.75000000  0.25000000  1
  V  V179  1  0.25000000  0.75000000  0.37500000  1
  V  V180  1  0.25000000  0.75000000  0.50000000  1
  V  V181  1  0.25000000  0.75000000  0.62500000  1
  Ti  Ti182  1  0.25000000  0.75000000  0.75000000  1
  V  V183  1  0.25000000  0.75000000  0.87500000  1
  V  V184  1  0.25000000  0.87500000  0.00000000  1
  Cr  Cr185  1  0.25000000  0.87500000  0.12500000  1
  V  V186  1  0.25000000  0.87500000  0.25000000  1
  V  V187  1  0.25000000  0.87500000  0.37500000  1
  V  V188  1  0.25000000  0.87500000  0.50000000  1
  V  V189  1  0.25000000  0.87500000  0.62500000  1
  V  V190  1  0.25000000  0.87500000  0.75000000  1
  Ti  Ti191  1  0.25000000  0.87500000  0.87500000  1
  V  V192  1  0.37500000  0.00000000  0.00000000  1
  Ti  Ti193  1  0.37500000  0.00000000  0.12500000  1
  V  V194  1  0.37500000  0.00000000  0.25000000  1
  V  V195  1  0.37500000  0.00000000  0.37500000  1
  V  V196  1  0.37500000  0.00000000  0.50000000  1
  V  V197  1  0.37500000  0.00000000  0.62500000  1
  V  V198  1  0.37500000  0.00000000  0.75000000  1
  Ti  Ti199  1  0.37500000  0.00000000  0.87500000  1
  Ti  Ti200  1  0.37500000  0.12500000  0.00000000  1
  V  V201  1  0.37500000  0.12500000  0.12500000  1
  Cr  Cr202  1  0.37500000  0.12500000  0.25000000  1
  V  V203  1  0.37500000  0.12500000  0.37500000  1
  V  V204  1  0.37500000  0.12500000  0.50000000  1
  V  V205  1  0.37500000  0.12500000  0.62500000  1
  Cr  Cr206  1  0.37500000  0.12500000  0.75000000  1
  V  V207  1  0.37500000  0.12500000  0.87500000  1
  V  V208  1  0.37500000  0.25000000  0.00000000  1
  Ti  Ti209  1  0.37500000  0.25000000  0.12500000  1
  V  V210  1  0.37500000  0.25000000  0.25000000  1
  V  V211  1  0.37500000  0.25000000  0.37500000  1
  V  V212  1  0.37500000  0.25000000  0.50000000  1
  V  V213  1  0.37500000  0.25000000  0.62500000  1
  V  V214  1  0.37500000  0.25000000  0.75000000  1
  Ti  Ti215  1  0.37500000  0.25000000  0.87500000  1
  Ti  Ti216  1  0.37500000  0.37500000  0.00000000  1
  V  V217  1  0.37500000  0.37500000  0.12500000  1
  V  V218  1  0.37500000  0.37500000  0.25000000  1
  V  V219  1  0.37500000  0.37500000  0.37500000  1
  V  V220  1  0.37500000  0.37500000  0.50000000  1
  V  V221  1  0.37500000  0.37500000  0.62500000  1
  Cr  Cr222  1  0.37500000  0.37500000  0.75000000  1
  V  V223  1  0.37500000  0.37500000  0.87500000  1
  V  V224  1  0.37500000  0.50000000  0.00000000  1
  Ti  Ti225  1  0.37500000  0.50000000  0.12500000  1
  V  V226  1  0.37500000  0.50000000  0.25000000  1
  V  V227  1  0.37500000  0.50000000  0.37500000  1
  V  V228  1  0.37500000  0.50000000  0.50000000  1
  V  V229  1  0.37500000  0.50000000  0.62500000  1
  V  V230  1  0.37500000  0.50000000  0.75000000  1
  Ti  Ti231  1  0.37500000  0.50000000  0.87500000  1
  Ti  Ti232  1  0.37500000  0.62500000  0.00000000  1
  V  V233  1  0.37500000  0.62500000  0.12500000  1
  V  V234  1  0.37500000  0.62500000  0.25000000  1
  V  V235  1  0.37500000  0.62500000  0.37500000  1
  V  V236  1  0.37500000  0.62500000  0.50000000  1
  Cr  Cr237  1  0.37500000  0.62500000  0.62500000  1
  Ti  Ti238  1  0.37500000  0.62500000  0.75000000  1
  V  V239  1  0.37500000  0.62500000  0.87500000  1
  V  V240  1  0.37500000  0.75000000  0.00000000  1
  Ti  Ti241  1  0.37500000  0.75000000  0.12500000  1
  V  V242  1  0.37500000  0.75000000  0.25000000  1
  V  V243  1  0.37500000  0.75000000  0.37500000  1
  V  V244  1  0.37500000  0.75000000  0.50000000  1
  V  V245  1  0.37500000  0.75000000  0.62500000  1
  V  V246  1  0.37500000  0.75000000  0.75000000  1
  Ti  Ti247  1  0.37500000  0.75000000  0.87500000  1
  Ti  Ti248  1  0.37500000  0.87500000  0.00000000  1
  V  V249  1  0.37500000  0.87500000  0.12500000  1
  Cr  Cr250  1  0.37500000  0.87500000  0.25000000  1
  V  V251  1  0.37500000  0.87500000  0.37500000  1
  V  V252  1  0.37500000  0.87500000  0.50000000  1
  V  V253  1  0.37500000  0.87500000  0.62500000  1
  Ti  Ti254  1  0.37500000  0.87500000  0.75000000  1
  V  V255  1  0.37500000  0.87500000  0.87500000  1
  Ti  Ti256  1  0.50000000  0.00000000  0.00000000  1
  V  V257  1  0.50000000  0.00000000  0.12500000  1
  Ti  Ti258  1  0.50000000  0.00000000  0.25000000  1
  V  V259  1  0.50000000  0.00000000  0.37500000  1
  V  V260  1  0.50000000  0.00000000  0.50000000  1
  V  V261  1  0.50000000  0.00000000  0.62500000  1
  Cr  Cr262  1  0.50000000  0.00000000  0.75000000  1
  V  V263  1  0.50000000  0.00000000  0.87500000  1
  V  V264  1  0.50000000  0.12500000  0.00000000  1
  Ti  Ti265  1  0.50000000  0.12500000  0.12500000  1
  V  V266  1  0.50000000  0.12500000  0.25000000  1
  V  V267  1  0.50000000  0.12500000  0.37500000  1
  V  V268  1  0.50000000  0.12500000  0.50000000  1
  V  V269  1  0.50000000  0.12500000  0.62500000  1
  V  V270  1  0.50000000  0.12500000  0.75000000  1
  Ti  Ti271  1  0.50000000  0.12500000  0.87500000  1
  Ti  Ti272  1  0.50000000  0.25000000  0.00000000  1
  V  V273  1  0.50000000  0.25000000  0.12500000  1
  Cr  Cr274  1  0.50000000  0.25000000  0.25000000  1
  V  V275  1  0.50000000  0.25000000  0.37500000  1
  V  V276  1  0.50000000  0.25000000  0.50000000  1
  V  V277  1  0.50000000  0.25000000  0.62500000  1
  V  V278  1  0.50000000  0.25000000  0.75000000  1
  V  V279  1  0.50000000  0.25000000  0.87500000  1
  V  V280  1  0.50000000  0.37500000  0.00000000  1
  Ti  Ti281  1  0.50000000  0.37500000  0.12500000  1
  V  V282  1  0.50000000  0.37500000  0.25000000  1
  V  V283  1  0.50000000  0.37500000  0.37500000  1
  V  V284  1  0.50000000  0.37500000  0.50000000  1
  V  V285  1  0.50000000  0.37500000  0.62500000  1
  Cr  Cr286  1  0.50000000  0.37500000  0.75000000  1
  Ti  Ti287  1  0.50000000  0.37500000  0.87500000  1
  Ti  Ti288  1  0.50000000  0.50000000  0.00000000  1
  V  V289  1  0.50000000  0.50000000  0.12500000  1
  V  V290  1  0.50000000  0.50000000  0.25000000  1
  V  V291  1  0.50000000  0.50000000  0.37500000  1
  V  V292  1  0.50000000  0.50000000  0.50000000  1
  V  V293  1  0.50000000  0.50000000  0.62500000  1
  Cr  Cr294  1  0.50000000  0.50000000  0.75000000  1
  V  V295  1  0.50000000  0.50000000  0.87500000  1
  V  V296  1  0.50000000  0.62500000  0.00000000  1
  Ti  Ti297  1  0.50000000  0.62500000  0.12500000  1
  V  V298  1  0.50000000  0.62500000  0.25000000  1
  V  V299  1  0.50000000  0.62500000  0.37500000  1
  V  V300  1  0.50000000  0.62500000  0.50000000  1
  V  V301  1  0.50000000  0.62500000  0.62500000  1
  V  V302  1  0.50000000  0.62500000  0.75000000  1
  Ti  Ti303  1  0.50000000  0.62500000  0.87500000  1
  Ti  Ti304  1  0.50000000  0.75000000  0.00000000  1
  V  V305  1  0.50000000  0.75000000  0.12500000  1
  Ti  Ti306  1  0.50000000  0.75000000  0.25000000  1
  V  V307  1  0.50000000  0.75000000  0.37500000  1
  V  V308  1  0.50000000  0.75000000  0.50000000  1
  V  V309  1  0.50000000  0.75000000  0.62500000  1
  Ti  Ti310  1  0.50000000  0.75000000  0.75000000  1
  V  V311  1  0.50000000  0.75000000  0.87500000  1
  V  V312  1  0.50000000  0.87500000  0.00000000  1
  Ti  Ti313  1  0.50000000  0.87500000  0.12500000  1
  V  V314  1  0.50000000  0.87500000  0.25000000  1
  V  V315  1  0.50000000  0.87500000  0.37500000  1
  V  V316  1  0.50000000  0.87500000  0.50000000  1
  V  V317  1  0.50000000  0.87500000  0.62500000  1
  V  V318  1  0.50000000  0.87500000  0.75000000  1
  Ti  Ti319  1  0.50000000  0.87500000  0.87500000  1
  V  V320  1  0.62500000  0.00000000  0.00000000  1
  Ti  Ti321  1  0.62500000  0.00000000  0.12500000  1
  V  V322  1  0.62500000  0.00000000  0.25000000  1
  Cr  Cr323  1  0.62500000  0.00000000  0.37500000  1
  V  V324  1  0.62500000  0.00000000  0.50000000  1
  V  V325  1  0.62500000  0.00000000  0.62500000  1
  V  V326  1  0.62500000  0.00000000  0.75000000  1
  Ti  Ti327  1  0.62500000  0.00000000  0.87500000  1
  Ti  Ti328  1  0.62500000  0.12500000  0.00000000  1
  V  V329  1  0.62500000  0.12500000  0.12500000  1
  Ti  Ti330  1  0.62500000  0.12500000  0.25000000  1
  V  V331  1  0.62500000  0.12500000  0.37500000  1
  V  V332  1  0.62500000  0.12500000  0.50000000  1
  V  V333  1  0.62500000  0.12500000  0.62500000  1
  V  V334  1  0.62500000  0.12500000  0.75000000  1
  V  V335  1  0.62500000  0.12500000  0.87500000  1
  V  V336  1  0.62500000  0.25000000  0.00000000  1
  Ti  Ti337  1  0.62500000  0.25000000  0.12500000  1
  V  V338  1  0.62500000  0.25000000  0.25000000  1
  Cr  Cr339  1  0.62500000  0.25000000  0.37500000  1
  V  V340  1  0.62500000  0.25000000  0.50000000  1
  V  V341  1  0.62500000  0.25000000  0.62500000  1
  V  V342  1  0.62500000  0.25000000  0.75000000  1
  Cr  Cr343  1  0.62500000  0.25000000  0.87500000  1
  Ti  Ti344  1  0.62500000  0.37500000  0.00000000  1
  V  V345  1  0.62500000  0.37500000  0.12500000  1
  Ti  Ti346  1  0.62500000  0.37500000  0.25000000  1
  V  V347  1  0.62500000  0.37500000  0.37500000  1
  V  V348  1  0.62500000  0.37500000  0.50000000  1
  V  V349  1  0.62500000  0.37500000  0.62500000  1
  V  V350  1  0.62500000  0.37500000  0.75000000  1
  V  V351  1  0.62500000  0.37500000  0.87500000  1
  V  V352  1  0.62500000  0.50000000  0.00000000  1
  Ti  Ti353  1  0.62500000  0.50000000  0.12500000  1
  V  V354  1  0.62500000  0.50000000  0.25000000  1
  V  V355  1  0.62500000  0.50000000  0.37500000  1
  V  V356  1  0.62500000  0.50000000  0.50000000  1
  V  V357  1  0.62500000  0.50000000  0.62500000  1
  V  V358  1  0.62500000  0.50000000  0.75000000  1
  Cr  Cr359  1  0.62500000  0.50000000  0.87500000  1
  Ti  Ti360  1  0.62500000  0.62500000  0.00000000  1
  V  V361  1  0.62500000  0.62500000  0.12500000  1
  Ti  Ti362  1  0.62500000  0.62500000  0.25000000  1
  V  V363  1  0.62500000  0.62500000  0.37500000  1
  V  V364  1  0.62500000  0.62500000  0.50000000  1
  V  V365  1  0.62500000  0.62500000  0.62500000  1
  Cr  Cr366  1  0.62500000  0.62500000  0.75000000  1
  V  V367  1  0.62500000  0.62500000  0.87500000  1
  V  V368  1  0.62500000  0.75000000  0.00000000  1
  Ti  Ti369  1  0.62500000  0.75000000  0.12500000  1
  V  V370  1  0.62500000  0.75000000  0.25000000  1
  Cr  Cr371  1  0.62500000  0.75000000  0.37500000  1
  V  V372  1  0.62500000  0.75000000  0.50000000  1
  V  V373  1  0.62500000  0.75000000  0.62500000  1
  V  V374  1  0.62500000  0.75000000  0.75000000  1
  Ti  Ti375  1  0.62500000  0.75000000  0.87500000  1
  Ti  Ti376  1  0.62500000  0.87500000  0.00000000  1
  V  V377  1  0.62500000  0.87500000  0.12500000  1
  Ti  Ti378  1  0.62500000  0.87500000  0.25000000  1
  V  V379  1  0.62500000  0.87500000  0.37500000  1
  V  V380  1  0.62500000  0.87500000  0.50000000  1
  V  V381  1  0.62500000  0.87500000  0.62500000  1
  Cr  Cr382  1  0.62500000  0.87500000  0.75000000  1
  V  V383  1  0.62500000  0.87500000  0.87500000  1
  Ti  Ti384  1  0.75000000  0.00000000  0.00000000  1
  V  V385  1  0.75000000  0.00000000  0.12500000  1
  Ti  Ti386  1  0.75000000  0.00000000  0.25000000  1
  V  V387  1  0.75000000  0.00000000  0.37500000  1
  V  V388  1  0.75000000  0.00000000  0.50000000  1
  V  V389  1  0.75000000  0.00000000  0.62500000  1
  V  V390  1  0.75000000  0.00000000  0.75000000  1
  V  V391  1  0.75000000  0.00000000  0.87500000  1
  V  V392  1  0.75000000  0.12500000  0.00000000  1
  Ti  Ti393  1  0.75000000  0.12500000  0.12500000  1
  V  V394  1  0.75000000  0.12500000  0.25000000  1
  Cr  Cr395  1  0.75000000  0.12500000  0.37500000  1
  V  V396  1  0.75000000  0.12500000  0.50000000  1
  V  V397  1  0.75000000  0.12500000  0.62500000  1
  V  V398  1  0.75000000  0.12500000  0.75000000  1
  V  V399  1  0.75000000  0.12500000  0.87500000  1
  Cr  Cr400  1  0.75000000  0.25000000  0.00000000  1
  V  V401  1  0.75000000  0.25000000  0.12500000  1
  Cr  Cr402  1  0.75000000  0.25000000  0.25000000  1
  V  V403  1  0.75000000  0.25000000  0.37500000  1
  Cr  Cr404  1  0.75000000  0.25000000  0.50000000  1
  Cr  Cr405  1  0.75000000  0.25000000  0.62500000  1
  V  V406  1  0.75000000  0.25000000  0.75000000  1
  Cr  Cr407  1  0.75000000  0.25000000  0.87500000  1
  V  V408  1  0.75000000  0.37500000  0.00000000  1
  Cr  Cr409  1  0.75000000  0.37500000  0.12500000  1
  V  V410  1  0.75000000  0.37500000  0.25000000  1
  Cr  Cr411  1  0.75000000  0.37500000  0.37500000  1
  Cr  Cr412  1  0.75000000  0.37500000  0.50000000  1
  V  V413  1  0.75000000  0.37500000  0.62500000  1
  V  V414  1  0.75000000  0.37500000  0.75000000  1
  V  V415  1  0.75000000  0.37500000  0.87500000  1
  Cr  Cr416  1  0.75000000  0.50000000  0.00000000  1
  V  V417  1  0.75000000  0.50000000  0.12500000  1
  Cr  Cr418  1  0.75000000  0.50000000  0.25000000  1
  V  V419  1  0.75000000  0.50000000  0.37500000  1
  V  V420  1  0.75000000  0.50000000  0.50000000  1
  V  V421  1  0.75000000  0.50000000  0.62500000  1
  V  V422  1  0.75000000  0.50000000  0.75000000  1
  V  V423  1  0.75000000  0.50000000  0.87500000  1
  V  V424  1  0.75000000  0.62500000  0.00000000  1
  Ti  Ti425  1  0.75000000  0.62500000  0.12500000  1
  V  V426  1  0.75000000  0.62500000  0.25000000  1
  V  V427  1  0.75000000  0.62500000  0.37500000  1
  V  V428  1  0.75000000  0.62500000  0.50000000  1
  V  V429  1  0.75000000  0.62500000  0.62500000  1
  V  V430  1  0.75000000  0.62500000  0.75000000  1
  V  V431  1  0.75000000  0.62500000  0.87500000  1
  Ti  Ti432  1  0.75000000  0.75000000  0.00000000  1
  V  V433  1  0.75000000  0.75000000  0.12500000  1
  Ti  Ti434  1  0.75000000  0.75000000  0.25000000  1
  V  V435  1  0.75000000  0.75000000  0.37500000  1
  V  V436  1  0.75000000  0.75000000  0.50000000  1
  V  V437  1  0.75000000  0.75000000  0.62500000  1
  V  V438  1  0.75000000  0.75000000  0.75000000  1
  V  V439  1  0.75000000  0.75000000  0.87500000  1
  V  V440  1  0.75000000  0.87500000  0.00000000  1
  Ti  Ti441  1  0.75000000  0.87500000  0.12500000  1
  V  V442  1  0.75000000  0.87500000  0.25000000  1
  Ti  Ti443  1  0.75000000  0.87500000  0.37500000  1
  V  V444  1  0.75000000  0.87500000  0.50000000  1
  V  V445  1  0.75000000  0.87500000  0.62500000  1
  V  V446  1  0.75000000  0.87500000  0.75000000  1
  Cr  Cr447  1  0.75000000  0.87500000  0.87500000  1
  V  V448  1  0.87500000  0.00000000  0.00000000  1
  Cr  Cr449  1  0.87500000  0.00000000  0.12500000  1
  V  V450  1  0.87500000  0.00000000  0.25000000  1
  Cr  Cr451  1  0.87500000  0.00000000  0.37500000  1
  V  V452  1  0.87500000  0.00000000  0.50000000  1
  V  V453  1  0.87500000  0.00000000  0.62500000  1
  V  V454  1  0.87500000  0.00000000  0.75000000  1
  V  V455  1  0.87500000  0.00000000  0.87500000  1
  V  V456  1  0.87500000  0.12500000  0.00000000  1
  V  V457  1  0.87500000  0.12500000  0.12500000  1
  Cr  Cr458  1  0.87500000  0.12500000  0.25000000  1
  V  V459  1  0.87500000  0.12500000  0.37500000  1
  Cr  Cr460  1  0.87500000  0.12500000  0.50000000  1
  V  V461  1  0.87500000  0.12500000  0.62500000  1
  V  V462  1  0.87500000  0.12500000  0.75000000  1
  V  V463  1  0.87500000  0.12500000  0.87500000  1
  V  V464  1  0.87500000  0.25000000  0.00000000  1
  Cr  Cr465  1  0.87500000  0.25000000  0.12500000  1
  V  V466  1  0.87500000  0.25000000  0.25000000  1
  Cr  Cr467  1  0.87500000  0.25000000  0.37500000  1
  V  V468  1  0.87500000  0.25000000  0.50000000  1
  V  V469  1  0.87500000  0.25000000  0.62500000  1
  V  V470  1  0.87500000  0.25000000  0.75000000  1
  V  V471  1  0.87500000  0.25000000  0.87500000  1
  V  V472  1  0.87500000  0.37500000  0.00000000  1
  V  V473  1  0.87500000  0.37500000  0.12500000  1
  V  V474  1  0.87500000  0.37500000  0.25000000  1
  V  V475  1  0.87500000  0.37500000  0.37500000  1
  V  V476  1  0.87500000  0.37500000  0.50000000  1
  Cr  Cr477  1  0.87500000  0.37500000  0.62500000  1
  V  V478  1  0.87500000  0.37500000  0.75000000  1
  V  V479  1  0.87500000  0.37500000  0.87500000  1
  V  V480  1  0.87500000  0.50000000  0.00000000  1
  Cr  Cr481  1  0.87500000  0.50000000  0.12500000  1
  V  V482  1  0.87500000  0.50000000  0.25000000  1
  V  V483  1  0.87500000  0.50000000  0.37500000  1
  V  V484  1  0.87500000  0.50000000  0.50000000  1
  V  V485  1  0.87500000  0.50000000  0.62500000  1
  V  V486  1  0.87500000  0.50000000  0.75000000  1
  V  V487  1  0.87500000  0.50000000  0.87500000  1
  V  V488  1  0.87500000  0.62500000  0.00000000  1
  V  V489  1  0.87500000  0.62500000  0.12500000  1
  Cr  Cr490  1  0.87500000  0.62500000  0.25000000  1
  V  V491  1  0.87500000  0.62500000  0.37500000  1
  V  V492  1  0.87500000  0.62500000  0.50000000  1
  V  V493  1  0.87500000  0.62500000  0.62500000  1
  V  V494  1  0.87500000  0.62500000  0.75000000  1
  V  V495  1  0.87500000  0.62500000  0.87500000  1
  V  V496  1  0.87500000  0.75000000  0.00000000  1
  Cr  Cr497  1  0.87500000  0.75000000  0.12500000  1
  V  V498  1  0.87500000  0.75000000  0.25000000  1
  V  V499  1  0.87500000  0.75000000  0.37500000  1
  V  V500  1  0.87500000  0.75000000  0.50000000  1
  V  V501  1  0.87500000  0.75000000  0.62500000  1
  V  V502  1  0.87500000  0.75000000  0.75000000  1
  V  V503  1  0.87500000  0.75000000  0.87500000  1
  Cr  Cr504  1  0.87500000  0.87500000  0.00000000  1
  V  V505  1  0.87500000  0.87500000  0.12500000  1
  Cr  Cr506  1  0.87500000  0.87500000  0.25000000  1
  V  V507  1  0.87500000  0.87500000  0.37500000  1
  V  V508  1  0.87500000  0.87500000  0.50000000  1
  V  V509  1  0.87500000  0.87500000  0.62500000  1
  V  V510  1  0.87500000  0.87500000  0.75000000  1
  V  V511  1  0.87500000  0.87500000  0.87500000  1
