# generated using pymatgen
data_Ti57(V6Cr)65
_symmetry_space_group_name_H-M   'P 1'
_cell_length_a   20.85389172
_cell_length_b   20.85389172
_cell_length_c   20.85389172
_cell_angle_alpha   109.47122063
_cell_angle_beta   109.47122063
_cell_angle_gamma   109.47122063
_symmetry_Int_Tables_number   1
_chemical_formula_structural   Ti57(V6Cr)65
_chemical_formula_sum   'Ti57 V390 Cr65'
_cell_volume   6981.35065600
_cell_formula_units_Z   1
loop_
 _symmetry_equiv_pos_site_id
 _symmetry_equiv_pos_as_xyz
  1  'x, y, z'
loop_
 _atom_site_type_symbol
 _atom_site_label
 _atom_site_symmetry_multiplicity
 _atom_site_fract_x
 _atom_site_fract_y
 _atom_site_fract_z
 _atom_site_occupancy
  Cr  Cr0  1  0.00000000  0.00000000  0.00000000  1
  V  V1  1  0.00000000  0.00000000  0.12500000  1
  V  V2  1  0.00000000  0.00000000  0.25000000  1
  V  V3  1  0.00000000  0.00000000  0.37500000  1
  Cr  Cr4  1  0.00000000  0.00000000  0.50000000  1
  V  V5  1  0.00000000  0.00000000  0.62500000  1
  V  V6  1  0.00000000  0.00000000  0.75000000  1
  V  V7  1  0.00000000  0.00000000  0.87500000  1
  V  V8  1  0.00000000  0.12500000  0.00000000  1
  V  V9  1  0.00000000  0.12500000  0.12500000  1
  V  V10  1  0.00000000  0.12500000  0.25000000  1
  V  V11  1  0.00000000  0.12500000  0.37500000  1
  V  V12  1  0.00000000  0.12500000  0.50000000  1
  V  V13  1  0.00000000  0.12500000  0.62500000  1
  Cr  Cr14  1  0.00000000  0.12500000  0.75000000  1
  V  V15  1  0.00000000  0.12500000  0.87500000  1
  V  V16  1  0.00000000  0.25000000  0.00000000  1
  V  V17  1  0.00000000  0.25000000  0.12500000  1
  V  V18  1  0.00000000  0.25000000  0.25000000  1
  V  V19  1  0.00000000  0.25000000  0.37500000  1
  V  V20  1  0.00000000  0.25000000  0.50000000  1
  V  V21  1  0.00000000  0.25000000  0.62500000  1
  Ti  Ti22  1  0.00000000  0.25000000  0.75000000  1
  Cr  Cr23  1  0.00000000  0.25000000  0.87500000  1
  V  V24  1  0.00000000  0.37500000  0.00000000  1
  Cr  Cr25  1  0.00000000  0.37500000  0.12500000  1
  Cr  Cr26  1  0.00000000  0.37500000  0.25000000  1
  Ti  Ti27  1  0.00000000  0.37500000  0.37500000  1
  V  V28  1  0.00000000  0.37500000  0.50000000  1
  V  V29  1  0.00000000  0.37500000  0.62500000  1
  V  V30  1  0.00000000  0.37500000  0.75000000  1
  Ti  Ti31  1  0.00000000  0.37500000  0.87500000  1
  V  V32  1  0.00000000  0.50000000  0.00000000  1
  Ti  Ti33  1  0.00000000  0.50000000  0.12500000  1
  V  V34  1  0.00000000  0.50000000  0.25000000  1
  V  V35  1  0.00000000  0.50000000  0.37500000  1
  V  V36  1  0.00000000  0.50000000  0.50000000  1
  V  V37  1  0.00000000  0.50000000  0.62500000  1
  V  V38  1  0.00000000  0.50000000  0.75000000  1
  Ti  Ti39  1  0.00000000  0.50000000  0.87500000  1
  Ti  Ti40  1  0.00000000  0.62500000  0.00000000  1
  V  V41  1  0.00000000  0.62500000  0.12500000  1
  Cr  Cr42  1  0.00000000  0.62500000  0.25000000  1
  V  V43  1  0.00000000  0.62500000  0.37500000  1
  V  V44  1  0.00000000  0.62500000  0.50000000  1
  V  V45  1  0.00000000  0.62500000  0.62500000  1
  V  V46  1  0.00000000  0.62500000  0.75000000  1
  V  V47  1  0.00000000  0.62500000  0.87500000  1
  V  V48  1  0.00000000  0.75000000  0.00000000  1
  V  V49  1  0.00000000  0.75000000  0.12500000  1
  V  V50  1  0.00000000  0.75000000  0.25000000  1
  V  V51  1  0.00000000  0.75000000  0.37500000  1
  V  V52  1  0.00000000  0.75000000  0.50000000  1
  V  V53  1  0.00000000  0.75000000  0.62500000  1
  V  V54  1  0.00000000  0.75000000  0.75000000  1
  Cr  Cr55  1  0.00000000  0.75000000  0.87500000  1
  V  V56  1  0.00000000  0.87500000  0.00000000  1
  V  V57  1  0.00000000  0.87500000  0.12500000  1
  V  V58  1  0.00000000  0.87500000  0.25000000  1
  V  V59  1  0.00000000  0.87500000  0.37500000  1
  Ti  Ti60  1  0.00000000  0.87500000  0.50000000  1
  V  V61  1  0.00000000  0.87500000  0.62500000  1
  V  V62  1  0.00000000  0.87500000  0.75000000  1
  Cr  Cr63  1  0.00000000  0.87500000  0.87500000  1
  V  V64  1  0.12500000  0.00000000  0.00000000  1
  V  V65  1  0.12500000  0.00000000  0.12500000  1
  V  V66  1  0.12500000  0.00000000  0.25000000  1
  V  V67  1  0.12500000  0.00000000  0.37500000  1
  V  V68  1  0.12500000  0.00000000  0.50000000  1
  V  V69  1  0.12500000  0.00000000  0.62500000  1
  V  V70  1  0.12500000  0.00000000  0.75000000  1
  V  V71  1  0.12500000  0.00000000  0.87500000  1
  Cr  Cr72  1  0.12500000  0.12500000  0.00000000  1
  V  V73  1  0.12500000  0.12500000  0.12500000  1
  V  V74  1  0.12500000  0.12500000  0.25000000  1
  V  V75  1  0.12500000  0.12500000  0.37500000  1
  V  V76  1  0.12500000  0.12500000  0.50000000  1
  V  V77  1  0.12500000  0.12500000  0.62500000  1
  V  V78  1  0.12500000  0.12500000  0.75000000  1
  V  V79  1  0.12500000  0.12500000  0.87500000  1
  Cr  Cr80  1  0.12500000  0.25000000  0.00000000  1
  V  V81  1  0.12500000  0.25000000  0.12500000  1
  V  V82  1  0.12500000  0.25000000  0.25000000  1
  V  V83  1  0.12500000  0.25000000  0.37500000  1
  V  V84  1  0.12500000  0.25000000  0.50000000  1
  V  V85  1  0.12500000  0.25000000  0.62500000  1
  Cr  Cr86  1  0.12500000  0.25000000  0.75000000  1
  Ti  Ti87  1  0.12500000  0.25000000  0.87500000  1
  V  V88  1  0.12500000  0.37500000  0.00000000  1
  V  V89  1  0.12500000  0.37500000  0.12500000  1
  V  V90  1  0.12500000  0.37500000  0.25000000  1
  V  V91  1  0.12500000  0.37500000  0.37500000  1
  V  V92  1  0.12500000  0.37500000  0.50000000  1
  Ti  Ti93  1  0.12500000  0.37500000  0.62500000  1
  V  V94  1  0.12500000  0.37500000  0.75000000  1
  V  V95  1  0.12500000  0.37500000  0.87500000  1
  V  V96  1  0.12500000  0.50000000  0.00000000  1
  Cr  Cr97  1  0.12500000  0.50000000  0.12500000  1
  Ti  Ti98  1  0.12500000  0.50000000  0.25000000  1
  V  V99  1  0.12500000  0.50000000  0.37500000  1
  V  V100  1  0.12500000  0.50000000  0.50000000  1
  V  V101  1  0.12500000  0.50000000  0.62500000  1
  V  V102  1  0.12500000  0.50000000  0.75000000  1
  V  V103  1  0.12500000  0.50000000  0.87500000  1
  V  V104  1  0.12500000  0.62500000  0.00000000  1
  Cr  Cr105  1  0.12500000  0.62500000  0.12500000  1
  V  V106  1  0.12500000  0.62500000  0.25000000  1
  Cr  Cr107  1  0.12500000  0.62500000  0.37500000  1
  V  V108  1  0.12500000  0.62500000  0.50000000  1
  V  V109  1  0.12500000  0.62500000  0.62500000  1
  V  V110  1  0.12500000  0.62500000  0.75000000  1
  V  V111  1  0.12500000  0.62500000  0.87500000  1
  Cr  Cr112  1  0.12500000  0.75000000  0.00000000  1
  V  V113  1  0.12500000  0.75000000  0.12500000  1
  V  V114  1  0.12500000  0.75000000  0.25000000  1
  Cr  Cr115  1  0.12500000  0.75000000  0.37500000  1
  Cr  Cr116  1  0.12500000  0.75000000  0.50000000  1
  V  V117  1  0.12500000  0.75000000  0.62500000  1
  V  V118  1  0.12500000  0.75000000  0.75000000  1
  V  V119  1  0.12500000  0.75000000  0.87500000  1
  Cr  Cr120  1  0.12500000  0.87500000  0.00000000  1
  V  V121  1  0.12500000  0.87500000  0.12500000  1
  V  V122  1  0.12500000  0.87500000  0.25000000  1
  V  V123  1  0.12500000  0.87500000  0.37500000  1
  V  V124  1  0.12500000  0.87500000  0.50000000  1
  V  V125  1  0.12500000  0.87500000  0.62500000  1
  V  V126  1  0.12500000  0.87500000  0.75000000  1
  V  V127  1  0.12500000  0.87500000  0.87500000  1
  V  V128  1  0.25000000  0.00000000  0.00000000  1
  V  V129  1  0.25000000  0.00000000  0.12500000  1
  V  V130  1  0.25000000  0.00000000  0.25000000  1
  V  V131  1  0.25000000  0.00000000  0.37500000  1
  V  V132  1  0.25000000  0.00000000  0.50000000  1
  V  V133  1  0.25000000  0.00000000  0.62500000  1
  V  V134  1  0.25000000  0.00000000  0.75000000  1
  V  V135  1  0.25000000  0.00000000  0.87500000  1
  Ti  Ti136  1  0.25000000  0.12500000  0.00000000  1
  V  V137  1  0.25000000  0.12500000  0.12500000  1
  V  V138  1  0.25000000  0.12500000  0.25000000  1
  V  V139  1  0.25000000  0.12500000  0.37500000  1
  V  V140  1  0.25000000  0.12500000  0.50000000  1
  V  V141  1  0.25000000  0.12500000  0.62500000  1
  V  V142  1  0.25000000  0.12500000  0.75000000  1
  V  V143  1  0.25000000  0.12500000  0.87500000  1
  V  V144  1  0.25000000  0.25000000  0.00000000  1
  V  V145  1  0.25000000  0.25000000  0.12500000  1
  V  V146  1  0.25000000  0.25000000  0.25000000  1
  V  V147  1  0.25000000  0.25000000  0.37500000  1
  V  V148  1  0.25000000  0.25000000  0.50000000  1
  V  V149  1  0.25000000  0.25000000  0.62500000  1
  V  V150  1  0.25000000  0.25000000  0.75000000  1
  V  V151  1  0.25000000  0.25000000  0.87500000  1
  V  V152  1  0.25000000  0.37500000  0.00000000  1
  V  V153  1  0.25000000  0.37500000  0.12500000  1
  Ti  Ti154  1  0.25000000  0.37500000  0.25000000  1
  V  V155  1  0.25000000  0.37500000  0.37500000  1
  V  V156  1  0.25000000  0.37500000  0.50000000  1
  V  V157  1  0.25000000  0.37500000  0.62500000  1
  V  V158  1  0.25000000  0.37500000  0.75000000  1
  Ti  Ti159  1  0.25000000  0.37500000  0.87500000  1
  Cr  Cr160  1  0.25000000  0.50000000  0.00000000  1
  Cr  Cr161  1  0.25000000  0.50000000  0.12500000  1
  V  V162  1  0.25000000  0.50000000  0.25000000  1
  V  V163  1  0.25000000  0.50000000  0.37500000  1
  V  V164  1  0.25000000  0.50000000  0.50000000  1
  Cr  Cr165  1  0.25000000  0.50000000  0.62500000  1
  V  V166  1  0.25000000  0.50000000  0.75000000  1
  V  V167  1  0.25000000  0.50000000  0.87500000  1
  V  V168  1  0.25000000  0.62500000  0.00000000  1
  V  V169  1  0.25000000  0.62500000  0.12500000  1
  V  V170  1  0.25000000  0.62500000  0.25000000  1
  V  V171  1  0.25000000  0.62500000  0.37500000  1
  V  V172  1  0.25000000  0.62500000  0.50000000  1
  V  V173  1  0.25000000  0.62500000  0.62500000  1
  V  V174  1  0.25000000  0.62500000  0.75000000  1
  V  V175  1  0.25000000  0.62500000  0.87500000  1
  Ti  Ti176  1  0.25000000  0.75000000  0.00000000  1
  V  V177  1  0.25000000  0.75000000  0.12500000  1
  V  V178  1  0.25000000  0.75000000  0.25000000  1
  Cr  Cr179  1  0.25000000  0.75000000  0.37500000  1
  V  V180  1  0.25000000  0.75000000  0.50000000  1
  Cr  Cr181  1  0.25000000  0.75000000  0.62500000  1
  V  V182  1  0.25000000  0.75000000  0.75000000  1
  V  V183  1  0.25000000  0.75000000  0.87500000  1
  Ti  Ti184  1  0.25000000  0.87500000  0.00000000  1
  V  V185  1  0.25000000  0.87500000  0.12500000  1
  V  V186  1  0.25000000  0.87500000  0.25000000  1
  V  V187  1  0.25000000  0.87500000  0.37500000  1
  V  V188  1  0.25000000  0.87500000  0.50000000  1
  Cr  Cr189  1  0.25000000  0.87500000  0.62500000  1
  V  V190  1  0.25000000  0.87500000  0.75000000  1
  V  V191  1  0.25000000  0.87500000  0.87500000  1
  V  V192  1  0.37500000  0.00000000  0.00000000  1
  Ti  Ti193  1  0.37500000  0.00000000  0.12500000  1
  V  V194  1  0.37500000  0.00000000  0.25000000  1
  V  V195  1  0.37500000  0.00000000  0.37500000  1
  V  V196  1  0.37500000  0.00000000  0.50000000  1
  V  V197  1  0.37500000  0.00000000  0.62500000  1
  V  V198  1  0.37500000  0.00000000  0.75000000  1
  V  V199  1  0.37500000  0.00000000  0.87500000  1
  Cr  Cr200  1  0.37500000  0.12500000  0.00000000  1
  Ti  Ti201  1  0.37500000  0.12500000  0.12500000  1
  Ti  Ti202  1  0.37500000  0.12500000  0.25000000  1
  V  V203  1  0.37500000  0.12500000  0.37500000  1
  V  V204  1  0.37500000  0.12500000  0.50000000  1
  V  V205  1  0.37500000  0.12500000  0.62500000  1
  V  V206  1  0.37500000  0.12500000  0.75000000  1
  V  V207  1  0.37500000  0.12500000  0.87500000  1
  V  V208  1  0.37500000  0.25000000  0.00000000  1
  Cr  Cr209  1  0.37500000  0.25000000  0.12500000  1
  V  V210  1  0.37500000  0.25000000  0.25000000  1
  V  V211  1  0.37500000  0.25000000  0.37500000  1
  V  V212  1  0.37500000  0.25000000  0.50000000  1
  V  V213  1  0.37500000  0.25000000  0.62500000  1
  Cr  Cr214  1  0.37500000  0.25000000  0.75000000  1
  Ti  Ti215  1  0.37500000  0.25000000  0.87500000  1
  V  V216  1  0.37500000  0.37500000  0.00000000  1
  V  V217  1  0.37500000  0.37500000  0.12500000  1
  Ti  Ti218  1  0.37500000  0.37500000  0.25000000  1
  V  V219  1  0.37500000  0.37500000  0.37500000  1
  V  V220  1  0.37500000  0.37500000  0.50000000  1
  V  V221  1  0.37500000  0.37500000  0.62500000  1
  Ti  Ti222  1  0.37500000  0.37500000  0.75000000  1
  Ti  Ti223  1  0.37500000  0.37500000  0.87500000  1
  V  V224  1  0.37500000  0.50000000  0.00000000  1
  V  V225  1  0.37500000  0.50000000  0.12500000  1
  V  V226  1  0.37500000  0.50000000  0.25000000  1
  Cr  Cr227  1  0.37500000  0.50000000  0.37500000  1
  V  V228  1  0.37500000  0.50000000  0.50000000  1
  V  V229  1  0.37500000  0.50000000  0.62500000  1
  V  V230  1  0.37500000  0.50000000  0.75000000  1
  Cr  Cr231  1  0.37500000  0.50000000  0.87500000  1
  V  V232  1  0.37500000  0.62500000  0.00000000  1
  V  V233  1  0.37500000  0.62500000  0.12500000  1
  V  V234  1  0.37500000  0.62500000  0.25000000  1
  Cr  Cr235  1  0.37500000  0.62500000  0.37500000  1
  V  V236  1  0.37500000  0.62500000  0.50000000  1
  Ti  Ti237  1  0.37500000  0.62500000  0.62500000  1
  Ti  Ti238  1  0.37500000  0.62500000  0.75000000  1
  V  V239  1  0.37500000  0.62500000  0.87500000  1
  V  V240  1  0.37500000  0.75000000  0.00000000  1
  V  V241  1  0.37500000  0.75000000  0.12500000  1
  Cr  Cr242  1  0.37500000  0.75000000  0.25000000  1
  V  V243  1  0.37500000  0.75000000  0.37500000  1
  V  V244  1  0.37500000  0.75000000  0.50000000  1
  Ti  Ti245  1  0.37500000  0.75000000  0.62500000  1
  V  V246  1  0.37500000  0.75000000  0.75000000  1
  V  V247  1  0.37500000  0.75000000  0.87500000  1
  Cr  Cr248  1  0.37500000  0.87500000  0.00000000  1
  Cr  Cr249  1  0.37500000  0.87500000  0.12500000  1
  Ti  Ti250  1  0.37500000  0.87500000  0.25000000  1
  V  V251  1  0.37500000  0.87500000  0.37500000  1
  Cr  Cr252  1  0.37500000  0.87500000  0.50000000  1
  V  V253  1  0.37500000  0.87500000  0.62500000  1
  V  V254  1  0.37500000  0.87500000  0.75000000  1
  V  V255  1  0.37500000  0.87500000  0.87500000  1
  V  V256  1  0.50000000  0.00000000  0.00000000  1
  V  V257  1  0.50000000  0.00000000  0.12500000  1
  Cr  Cr258  1  0.50000000  0.00000000  0.25000000  1
  Cr  Cr259  1  0.50000000  0.00000000  0.37500000  1
  V  V260  1  0.50000000  0.00000000  0.50000000  1
  V  V261  1  0.50000000  0.00000000  0.62500000  1
  V  V262  1  0.50000000  0.00000000  0.75000000  1
  Ti  Ti263  1  0.50000000  0.00000000  0.87500000  1
  V  V264  1  0.50000000  0.12500000  0.00000000  1
  V  V265  1  0.50000000  0.12500000  0.12500000  1
  V  V266  1  0.50000000  0.12500000  0.25000000  1
  V  V267  1  0.50000000  0.12500000  0.37500000  1
  V  V268  1  0.50000000  0.12500000  0.50000000  1
  V  V269  1  0.50000000  0.12500000  0.62500000  1
  Cr  Cr270  1  0.50000000  0.12500000  0.75000000  1
  Ti  Ti271  1  0.50000000  0.12500000  0.87500000  1
  V  V272  1  0.50000000  0.25000000  0.00000000  1
  Ti  Ti273  1  0.50000000  0.25000000  0.12500000  1
  V  V274  1  0.50000000  0.25000000  0.25000000  1
  Cr  Cr275  1  0.50000000  0.25000000  0.37500000  1
  V  V276  1  0.50000000  0.25000000  0.50000000  1
  V  V277  1  0.50000000  0.25000000  0.62500000  1
  V  V278  1  0.50000000  0.25000000  0.75000000  1
  Ti  Ti279  1  0.50000000  0.25000000  0.87500000  1
  V  V280  1  0.50000000  0.37500000  0.00000000  1
  V  V281  1  0.50000000  0.37500000  0.12500000  1
  V  V282  1  0.50000000  0.37500000  0.25000000  1
  Ti  Ti283  1  0.50000000  0.37500000  0.37500000  1
  V  V284  1  0.50000000  0.37500000  0.50000000  1
  V  V285  1  0.50000000  0.37500000  0.62500000  1
  Cr  Cr286  1  0.50000000  0.37500000  0.75000000  1
  V  V287  1  0.50000000  0.37500000  0.87500000  1
  Ti  Ti288  1  0.50000000  0.50000000  0.00000000  1
  Cr  Cr289  1  0.50000000  0.50000000  0.12500000  1
  V  V290  1  0.50000000  0.50000000  0.25000000  1
  V  V291  1  0.50000000  0.50000000  0.37500000  1
  Cr  Cr292  1  0.50000000  0.50000000  0.50000000  1
  V  V293  1  0.50000000  0.50000000  0.62500000  1
  V  V294  1  0.50000000  0.50000000  0.75000000  1
  V  V295  1  0.50000000  0.50000000  0.87500000  1
  V  V296  1  0.50000000  0.62500000  0.00000000  1
  V  V297  1  0.50000000  0.62500000  0.12500000  1
  V  V298  1  0.50000000  0.62500000  0.25000000  1
  V  V299  1  0.50000000  0.62500000  0.37500000  1
  V  V300  1  0.50000000  0.62500000  0.50000000  1
  V  V301  1  0.50000000  0.62500000  0.62500000  1
  V  V302  1  0.50000000  0.62500000  0.75000000  1
  Cr  Cr303  1  0.50000000  0.62500000  0.87500000  1
  V  V304  1  0.50000000  0.75000000  0.00000000  1
  V  V305  1  0.50000000  0.75000000  0.12500000  1
  V  V306  1  0.50000000  0.75000000  0.25000000  1
  Ti  Ti307  1  0.50000000  0.75000000  0.37500000  1
  Cr  Cr308  1  0.50000000  0.75000000  0.50000000  1
  V  V309  1  0.50000000  0.75000000  0.62500000  1
  Cr  Cr310  1  0.50000000  0.75000000  0.75000000  1
  V  V311  1  0.50000000  0.75000000  0.87500000  1
  V  V312  1  0.50000000  0.87500000  0.00000000  1
  V  V313  1  0.50000000  0.87500000  0.12500000  1
  V  V314  1  0.50000000  0.87500000  0.25000000  1
  V  V315  1  0.50000000  0.87500000  0.37500000  1
  V  V316  1  0.50000000  0.87500000  0.50000000  1
  V  V317  1  0.50000000  0.87500000  0.62500000  1
  V  V318  1  0.50000000  0.87500000  0.75000000  1
  Ti  Ti319  1  0.50000000  0.87500000  0.87500000  1
  V  V320  1  0.62500000  0.00000000  0.00000000  1
  V  V321  1  0.62500000  0.00000000  0.12500000  1
  Ti  Ti322  1  0.62500000  0.00000000  0.25000000  1
  V  V323  1  0.62500000  0.00000000  0.37500000  1
  V  V324  1  0.62500000  0.00000000  0.50000000  1
  V  V325  1  0.62500000  0.00000000  0.62500000  1
  V  V326  1  0.62500000  0.00000000  0.75000000  1
  V  V327  1  0.62500000  0.00000000  0.87500000  1
  Cr  Cr328  1  0.62500000  0.12500000  0.00000000  1
  V  V329  1  0.62500000  0.12500000  0.12500000  1
  V  V330  1  0.62500000  0.12500000  0.25000000  1
  V  V331  1  0.62500000  0.12500000  0.37500000  1
  V  V332  1  0.62500000  0.12500000  0.50000000  1
  V  V333  1  0.62500000  0.12500000  0.62500000  1
  V  V334  1  0.62500000  0.12500000  0.75000000  1
  V  V335  1  0.62500000  0.12500000  0.87500000  1
  V  V336  1  0.62500000  0.25000000  0.00000000  1
  Ti  Ti337  1  0.62500000  0.25000000  0.12500000  1
  V  V338  1  0.62500000  0.25000000  0.25000000  1
  V  V339  1  0.62500000  0.25000000  0.37500000  1
  V  V340  1  0.62500000  0.25000000  0.50000000  1
  Ti  Ti341  1  0.62500000  0.25000000  0.62500000  1
  V  V342  1  0.62500000  0.25000000  0.75000000  1
  Ti  Ti343  1  0.62500000  0.25000000  0.87500000  1
  Ti  Ti344  1  0.62500000  0.37500000  0.00000000  1
  Cr  Cr345  1  0.62500000  0.37500000  0.12500000  1
  V  V346  1  0.62500000  0.37500000  0.25000000  1
  V  V347  1  0.62500000  0.37500000  0.37500000  1
  Ti  Ti348  1  0.62500000  0.37500000  0.50000000  1
  V  V349  1  0.62500000  0.37500000  0.62500000  1
  V  V350  1  0.62500000  0.37500000  0.75000000  1
  V  V351  1  0.62500000  0.37500000  0.87500000  1
  V  V352  1  0.62500000  0.50000000  0.00000000  1
  V  V353  1  0.62500000  0.50000000  0.12500000  1
  V  V354  1  0.62500000  0.50000000  0.25000000  1
  Cr  Cr355  1  0.62500000  0.50000000  0.37500000  1
  Ti  Ti356  1  0.62500000  0.50000000  0.50000000  1
  V  V357  1  0.62500000  0.50000000  0.62500000  1
  V  V358  1  0.62500000  0.50000000  0.75000000  1
  V  V359  1  0.62500000  0.50000000  0.87500000  1
  Cr  Cr360  1  0.62500000  0.62500000  0.00000000  1
  V  V361  1  0.62500000  0.62500000  0.12500000  1
  V  V362  1  0.62500000  0.62500000  0.25000000  1
  Cr  Cr363  1  0.62500000  0.62500000  0.37500000  1
  V  V364  1  0.62500000  0.62500000  0.50000000  1
  V  V365  1  0.62500000  0.62500000  0.62500000  1
  V  V366  1  0.62500000  0.62500000  0.75000000  1
  V  V367  1  0.62500000  0.62500000  0.87500000  1
  V  V368  1  0.62500000  0.75000000  0.00000000  1
  V  V369  1  0.62500000  0.75000000  0.12500000  1
  Ti  Ti370  1  0.62500000  0.75000000  0.25000000  1
  Cr  Cr371  1  0.62500000  0.75000000  0.37500000  1
  V  V372  1  0.62500000  0.75000000  0.50000000  1
  V  V373  1  0.62500000  0.75000000  0.62500000  1
  Cr  Cr374  1  0.62500000  0.75000000  0.75000000  1
  V  V375  1  0.62500000  0.75000000  0.87500000  1
  Ti  Ti376  1  0.62500000  0.87500000  0.00000000  1
  V  V377  1  0.62500000  0.87500000  0.12500000  1
  Cr  Cr378  1  0.62500000  0.87500000  0.25000000  1
  V  V379  1  0.62500000  0.87500000  0.37500000  1
  Ti  Ti380  1  0.62500000  0.87500000  0.50000000  1
  V  V381  1  0.62500000  0.87500000  0.62500000  1
  V  V382  1  0.62500000  0.87500000  0.75000000  1
  V  V383  1  0.62500000  0.87500000  0.87500000  1
  Ti  Ti384  1  0.75000000  0.00000000  0.00000000  1
  V  V385  1  0.75000000  0.00000000  0.12500000  1
  Ti  Ti386  1  0.75000000  0.00000000  0.25000000  1
  V  V387  1  0.75000000  0.00000000  0.37500000  1
  V  V388  1  0.75000000  0.00000000  0.50000000  1
  V  V389  1  0.75000000  0.00000000  0.62500000  1
  V  V390  1  0.75000000  0.00000000  0.75000000  1
  V  V391  1  0.75000000  0.00000000  0.87500000  1
  V  V392  1  0.75000000  0.12500000  0.00000000  1
  Ti  Ti393  1  0.75000000  0.12500000  0.12500000  1
  V  V394  1  0.75000000  0.12500000  0.25000000  1
  Ti  Ti395  1  0.75000000  0.12500000  0.37500000  1
  Cr  Cr396  1  0.75000000  0.12500000  0.50000000  1
  Ti  Ti397  1  0.75000000  0.12500000  0.62500000  1
  Ti  Ti398  1  0.75000000  0.12500000  0.75000000  1
  V  V399  1  0.75000000  0.12500000  0.87500000  1
  V  V400  1  0.75000000  0.25000000  0.00000000  1
  V  V401  1  0.75000000  0.25000000  0.12500000  1
  V  V402  1  0.75000000  0.25000000  0.25000000  1
  V  V403  1  0.75000000  0.25000000  0.37500000  1
  V  V404  1  0.75000000  0.25000000  0.50000000  1
  V  V405  1  0.75000000  0.25000000  0.62500000  1
  V  V406  1  0.75000000  0.25000000  0.75000000  1
  V  V407  1  0.75000000  0.25000000  0.87500000  1
  Ti  Ti408  1  0.75000000  0.37500000  0.00000000  1
  V  V409  1  0.75000000  0.37500000  0.12500000  1
  Cr  Cr410  1  0.75000000  0.37500000  0.25000000  1
  V  V411  1  0.75000000  0.37500000  0.37500000  1
  V  V412  1  0.75000000  0.37500000  0.50000000  1
  V  V413  1  0.75000000  0.37500000  0.62500000  1
  V  V414  1  0.75000000  0.37500000  0.75000000  1
  V  V415  1  0.75000000  0.37500000  0.87500000  1
  V  V416  1  0.75000000  0.50000000  0.00000000  1
  V  V417  1  0.75000000  0.50000000  0.12500000  1
  V  V418  1  0.75000000  0.50000000  0.25000000  1
  V  V419  1  0.75000000  0.50000000  0.37500000  1
  Cr  Cr420  1  0.75000000  0.50000000  0.50000000  1
  V  V421  1  0.75000000  0.50000000  0.62500000  1
  V  V422  1  0.75000000  0.50000000  0.75000000  1
  V  V423  1  0.75000000  0.50000000  0.87500000  1
  V  V424  1  0.75000000  0.62500000  0.00000000  1
  V  V425  1  0.75000000  0.62500000  0.12500000  1
  V  V426  1  0.75000000  0.62500000  0.25000000  1
  V  V427  1  0.75000000  0.62500000  0.37500000  1
  V  V428  1  0.75000000  0.62500000  0.50000000  1
  V  V429  1  0.75000000  0.62500000  0.62500000  1
  V  V430  1  0.75000000  0.62500000  0.75000000  1
  V  V431  1  0.75000000  0.62500000  0.87500000  1
  V  V432  1  0.75000000  0.75000000  0.00000000  1
  V  V433  1  0.75000000  0.75000000  0.12500000  1
  V  V434  1  0.75000000  0.75000000  0.25000000  1
  Ti  Ti435  1  0.75000000  0.75000000  0.37500000  1
  V  V436  1  0.75000000  0.75000000  0.50000000  1
  V  V437  1  0.75000000  0.75000000  0.62500000  1
  V  V438  1  0.75000000  0.75000000  0.75000000  1
  V  V439  1  0.75000000  0.75000000  0.87500000  1
  V  V440  1  0.75000000  0.87500000  0.00000000  1
  V  V441  1  0.75000000  0.87500000  0.12500000  1
  Cr  Cr442  1  0.75000000  0.87500000  0.25000000  1
  Ti  Ti443  1  0.75000000  0.87500000  0.37500000  1
  V  V444  1  0.75000000  0.87500000  0.50000000  1
  V  V445  1  0.75000000  0.87500000  0.62500000  1
  V  V446  1  0.75000000  0.87500000  0.75000000  1
  Ti  Ti447  1  0.75000000  0.87500000  0.87500000  1
  Cr  Cr448  1  0.87500000  0.00000000  0.00000000  1
  Ti  Ti449  1  0.87500000  0.00000000  0.12500000  1
  V  V450  1  0.87500000  0.00000000  0.25000000  1
  Cr  Cr451  1  0.87500000  0.00000000  0.37500000  1
  Ti  Ti452  1  0.87500000  0.00000000  0.50000000  1
  V  V453  1  0.87500000  0.00000000  0.62500000  1
  V  V454  1  0.87500000  0.00000000  0.75000000  1
  V  V455  1  0.87500000  0.00000000  0.87500000  1
  V  V456  1  0.87500000  0.12500000  0.00000000  1
  Cr  Cr457  1  0.87500000  0.12500000  0.12500000  1
  V  V458  1  0.87500000  0.12500000  0.25000000  1
  Cr  Cr459  1  0.87500000  0.12500000  0.37500000  1
  V  V460  1  0.87500000  0.12500000  0.50000000  1
  V  V461  1  0.87500000  0.12500000  0.62500000  1
  V  V462  1  0.87500000  0.12500000  0.75000000  1
  Cr  Cr463  1  0.87500000  0.12500000  0.87500000  1
  V  V464  1  0.87500000  0.25000000  0.00000000  1
  V  V465  1  0.87500000  0.25000000  0.12500000  1
  V  V466  1  0.87500000  0.25000000  0.25000000  1
  V  V467  1  0.87500000  0.25000000  0.37500000  1
  V  V468  1  0.87500000  0.25000000  0.50000000  1
  V  V469  1  0.87500000  0.25000000  0.62500000  1
  V  V470  1  0.87500000  0.25000000  0.75000000  1
  V  V471  1  0.87500000  0.25000000  0.87500000  1
  V  V472  1  0.87500000  0.37500000  0.00000000  1
  V  V473  1  0.87500000  0.37500000  0.12500000  1
  V  V474  1  0.87500000  0.37500000  0.25000000  1
  V  V475  1  0.87500000  0.37500000  0.37500000  1
  V  V476  1  0.87500000  0.37500000  0.50000000  1
  V  V477  1  0.87500000  0.37500000  0.62500000  1
  V  V478  1  0.87500000  0.37500000  0.75000000  1
  V  V479  1  0.87500000  0.37500000  0.87500000  1
  V  V480  1  0.87500000  0.50000000  0.00000000  1
  V  V481  1  0.87500000  0.50000000  0.12500000  1
  Cr  Cr482  1  0.87500000  0.50000000  0.25000000  1
  V  V483  1  0.87500000  0.50000000  0.37500000  1
  V  V484  1  0.87500000  0.50000000  0.50000000  1
  V  V485  1  0.87500000  0.50000000  0.62500000  1
  Ti  Ti486  1  0.87500000  0.50000000  0.75000000  1
  V  V487  1  0.87500000  0.50000000  0.87500000  1
  V  V488  1  0.87500000  0.62500000  0.00000000  1
  V  V489  1  0.87500000  0.62500000  0.12500000  1
  V  V490  1  0.87500000  0.62500000  0.25000000  1
  V  V491  1  0.87500000  0.62500000  0.37500000  1
  V  V492  1  0.87500000  0.62500000  0.50000000  1
  V  V493  1  0.87500000  0.62500000  0.62500000  1
  V  V494  1  0.87500000  0.62500000  0.75000000  1
  Cr  Cr495  1  0.87500000  0.62500000  0.87500000  1
  V  V496  1  0.87500000  0.75000000  0.00000000  1
  V  V497  1  0.87500000  0.75000000  0.12500000  1
  V  V498  1  0.87500000  0.75000000  0.25000000  1
  V  V499  1  0.87500000  0.75000000  0.37500000  1
  V  V500  1  0.87500000  0.75000000  0.50000000  1
  V  V501  1  0.87500000  0.75000000  0.62500000  1
  V  V502  1  0.87500000  0.75000000  0.75000000  1
  V  V503  1  0.87500000  0.75000000  0.87500000  1
  V  V504  1  0.87500000  0.87500000  0.00000000  1
  V  V505  1  0.87500000  0.87500000  0.12500000  1
  V  V506  1  0.87500000  0.87500000  0.25000000  1
  V  V507  1  0.87500000  0.87500000  0.37500000  1
  Cr  Cr508  1  0.87500000  0.87500000  0.50000000  1
  V  V509  1  0.87500000  0.87500000  0.62500000  1
  V  V510  1  0.87500000  0.87500000  0.75000000  1
  V  V511  1  0.87500000  0.87500000  0.87500000  1
