# generated using pymatgen
data_Ti6V39Cr19
_symmetry_space_group_name_H-M   'P 1'
_cell_length_a   10.42694586
_cell_length_b   10.42694586
_cell_length_c   10.42694586
_cell_angle_alpha   109.47122063
_cell_angle_beta   109.47122063
_cell_angle_gamma   109.47122063
_symmetry_Int_Tables_number   1
_chemical_formula_structural   Ti6V39Cr19
_chemical_formula_sum   'Ti6 V39 Cr19'
_cell_volume   872.66883200
_cell_formula_units_Z   1
loop_
 _symmetry_equiv_pos_site_id
 _symmetry_equiv_pos_as_xyz
  1  'x, y, z'
loop_
 _atom_site_type_symbol
 _atom_site_label
 _atom_site_symmetry_multiplicity
 _atom_site_fract_x
 _atom_site_fract_y
 _atom_site_fract_z
 _atom_site_occupancy
  V  V0  1  0.00000000  0.00000000  0.00000000  1
  V  V1  1  0.00000000  0.00000000  0.25000000  1
  Cr  Cr2  1  0.00000000  0.00000000  0.50000000  1
  V  V3  1  0.00000000  0.00000000  0.75000000  1
  V  V4  1  0.00000000  0.25000000  0.00000000  1
  Cr  Cr5  1  0.00000000  0.25000000  0.25000000  1
  V  V6  1  0.00000000  0.25000000  0.50000000  1
  V  V7  1  0.00000000  0.25000000  0.75000000  1
  Cr  Cr8  1  0.00000000  0.50000000  0.00000000  1
  Cr  Cr9  1  0.00000000  0.50000000  0.25000000  1
  V  V10  1  0.00000000  0.50000000  0.50000000  1
  V  V11  1  0.00000000  0.50000000  0.75000000  1
  V  V12  1  0.00000000  0.75000000  0.00000000  1
  V  V13  1  0.00000000  0.75000000  0.25000000  1
  Cr  Cr14  1  0.00000000  0.75000000  0.50000000  1
  Ti  Ti15  1  0.00000000  0.75000000  0.75000000  1
  Cr  Cr16  1  0.25000000  0.00000000  0.00000000  1
  V  V17  1  0.25000000  0.00000000  0.25000000  1
  V  V18  1  0.25000000  0.00000000  0.50000000  1
  V  V19  1  0.25000000  0.00000000  0.75000000  1
  Cr  Cr20  1  0.25000000  0.25000000  0.00000000  1
  V  V21  1  0.25000000  0.25000000  0.25000000  1
  Cr  Cr22  1  0.25000000  0.25000000  0.50000000  1
  V  V23  1  0.25000000  0.25000000  0.75000000  1
  Cr  Cr24  1  0.25000000  0.50000000  0.00000000  1
  V  V25  1  0.25000000  0.50000000  0.25000000  1
  V  V26  1  0.25000000  0.50000000  0.50000000  1
  Ti  Ti27  1  0.25000000  0.50000000  0.75000000  1
  V  V28  1  0.25000000  0.75000000  0.00000000  1
  V  V29  1  0.25000000  0.75000000  0.25000000  1
  Ti  Ti30  1  0.25000000  0.75000000  0.50000000  1
  Cr  Cr31  1  0.25000000  0.75000000  0.75000000  1
  Ti  Ti32  1  0.50000000  0.00000000  0.00000000  1
  V  V33  1  0.50000000  0.00000000  0.25000000  1
  V  V34  1  0.50000000  0.00000000  0.50000000  1
  Cr  Cr35  1  0.50000000  0.00000000  0.75000000  1
  Cr  Cr36  1  0.50000000  0.25000000  0.00000000  1
  V  V37  1  0.50000000  0.25000000  0.25000000  1
  V  V38  1  0.50000000  0.25000000  0.50000000  1
  Cr  Cr39  1  0.50000000  0.25000000  0.75000000  1
  V  V40  1  0.50000000  0.50000000  0.00000000  1
  Cr  Cr41  1  0.50000000  0.50000000  0.25000000  1
  V  V42  1  0.50000000  0.50000000  0.50000000  1
  V  V43  1  0.50000000  0.50000000  0.75000000  1
  Cr  Cr44  1  0.50000000  0.75000000  0.00000000  1
  Ti  Ti45  1  0.50000000  0.75000000  0.25000000  1
  Cr  Cr46  1  0.50000000  0.75000000  0.50000000  1
  V  V47  1  0.50000000  0.75000000  0.75000000  1
  Cr  Cr48  1  0.75000000  0.00000000  0.00000000  1
  V  V49  1  0.75000000  0.00000000  0.25000000  1
  V  V50  1  0.75000000  0.00000000  0.50000000  1
  Ti  Ti51  1  0.75000000  0.00000000  0.75000000  1
  V  V52  1  0.75000000  0.25000000  0.00000000  1
  V  V53  1  0.75000000  0.25000000  0.25000000  1
  V  V54  1  0.75000000  0.25000000  0.50000000  1
  V  V55  1  0.75000000  0.25000000  0.75000000  1
  Cr  Cr56  1  0.75000000  0.50000000  0.00000000  1
  V  V57  1  0.75000000  0.50000000  0.25000000  1
  V  V58  1  0.75000000  0.50000000  0.50000000  1
  V  V59  1  0.75000000  0.50000000  0.75000000  1
  V  V60  1  0.75000000  0.75000000  0.00000000  1
  Cr  Cr61  1  0.75000000  0.75000000  0.25000000  1
  V  V62  1  0.75000000  0.75000000  0.50000000  1
  V  V63  1  0.75000000  0.75000000  0.75000000  1
