# generated using pymatgen
data_Zr30Ti9V50(CrW3)9
_symmetry_space_group_name_H-M   'P 1'
_cell_length_a   13.03368233
_cell_length_b   13.03368233
_cell_length_c   13.03368233
_cell_angle_alpha   109.47122063
_cell_angle_beta   109.47122063
_cell_angle_gamma   109.47122063
_symmetry_Int_Tables_number   1
_chemical_formula_structural   Zr30Ti9V50(CrW3)9
_chemical_formula_sum   'Zr30 Ti9 V50 Cr9 W27'
_cell_volume   1704.43131250
_cell_formula_units_Z   1
loop_
 _symmetry_equiv_pos_site_id
 _symmetry_equiv_pos_as_xyz
  1  'x, y, z'
loop_
 _atom_site_type_symbol
 _atom_site_label
 _atom_site_symmetry_multiplicity
 _atom_site_fract_x
 _atom_site_fract_y
 _atom_site_fract_z
 _atom_site_occupancy
  Zr  Zr0  1  0.00000000  0.00000000  0.00000000  1
  Zr  Zr1  1  0.00000000  0.20000000  0.20000000  1
  Zr  Zr2  1  0.00000000  0.60000000  0.60000000  1
  Zr  Zr3  1  0.00000000  0.60000000  0.80000000  1
  Zr  Zr4  1  0.00000000  0.80000000  0.00000000  1
  Zr  Zr5  1  0.20000000  1.00000000  0.20000000  1
  Zr  Zr6  1  0.20000000  1.00000000  0.40000000  1
  Zr  Zr7  1  0.20000000  0.20000000  0.80000000  1
  Zr  Zr8  1  0.20000000  0.40000000  0.40000000  1
  Zr  Zr9  1  0.20000000  0.40000000  0.60000000  1
  Zr  Zr10  1  0.20000000  0.40000000  0.80000000  1
  Zr  Zr11  1  0.20000000  0.80000000  0.00000000  1
  Zr  Zr12  1  0.40000000  1.00000000  0.60000000  1
  Zr  Zr13  1  0.40000000  0.20000000  0.00000000  1
  Zr  Zr14  1  0.40000000  0.20000000  0.60000000  1
  Zr  Zr15  1  0.40000000  0.40000000  0.80000000  1
  Zr  Zr16  1  0.40000000  0.60000000  0.00000000  1
  Zr  Zr17  1  0.40000000  0.60000000  0.60000000  1
  Zr  Zr18  1  0.60000000  1.00000000  0.00000000  1
  Zr  Zr19  1  0.60000000  0.20000000  0.40000000  1
  Zr  Zr20  1  0.60000000  0.40000000  0.00000000  1
  Zr  Zr21  1  0.60000000  0.40000000  0.80000000  1
  Zr  Zr22  1  0.60000000  0.60000000  0.20000000  1
  Zr  Zr23  1  0.60000000  0.80000000  0.80000000  1
  Zr  Zr24  1  0.80000000  0.00000000  0.40000000  1
  Zr  Zr25  1  0.80000000  0.20000000  0.20000000  1
  Zr  Zr26  1  0.80000000  0.20000000  0.40000000  1
  Zr  Zr27  1  0.80000000  0.20000000  0.60000000  1
  Zr  Zr28  1  0.80000000  0.80000000  0.40000000  1
  Zr  Zr29  1  0.80000000  0.80000000  0.80000000  1
  Ti  Ti30  1  0.00000000  1.00000000  0.80000000  1
  Ti  Ti31  1  0.00000000  0.20000000  0.00000000  1
  Ti  Ti32  1  0.00000000  0.40000000  0.40000000  1
  Ti  Ti33  1  0.40000000  0.40000000  0.20000000  1
  Ti  Ti34  1  0.60000000  0.00000000  0.20000000  1
  Ti  Ti35  1  0.60000000  0.20000000  0.60000000  1
  Ti  Ti36  1  0.60000000  0.80000000  0.00000000  1
  Ti  Ti37  1  0.80000000  1.00000000  0.60000000  1
  Ti  Ti38  1  0.80000000  0.80000000  0.60000000  1
  V  V39  1  0.00000000  1.00000000  0.20000000  1
  V  V40  1  0.00000000  1.00000000  0.40000000  1
  V  V41  1  0.00000000  0.20000000  0.40000000  1
  V  V42  1  0.00000000  0.20000000  0.60000000  1
  V  V43  1  0.00000000  0.20000000  0.80000000  1
  V  V44  1  0.00000000  0.60000000  0.00000000  1
  V  V45  1  0.00000000  0.80000000  0.20000000  1
  V  V46  1  0.00000000  0.80000000  0.60000000  1
  V  V47  1  0.00000000  0.80000000  0.80000000  1
  V  V48  1  0.20000000  0.00000000  0.00000000  1
  V  V49  1  0.20000000  0.20000000  0.40000000  1
  V  V50  1  0.20000000  0.60000000  0.00000000  1
  V  V51  1  0.20000000  0.60000000  0.20000000  1
  V  V52  1  0.20000000  0.60000000  0.40000000  1
  V  V53  1  0.20000000  0.60000000  0.60000000  1
  V  V54  1  0.20000000  0.80000000  0.40000000  1
  V  V55  1  0.20000000  0.80000000  0.60000000  1
  V  V56  1  0.20000000  0.80000000  0.80000000  1
  V  V57  1  0.40000000  0.00000000  0.00000000  1
  V  V58  1  0.40000000  1.00000000  0.40000000  1
  V  V59  1  0.40000000  1.00000000  0.80000000  1
  V  V60  1  0.40000000  0.20000000  0.20000000  1
  V  V61  1  0.40000000  0.20000000  0.80000000  1
  V  V62  1  0.40000000  0.40000000  0.00000000  1
  V  V63  1  0.40000000  0.40000000  0.40000000  1
  V  V64  1  0.40000000  0.60000000  0.20000000  1
  V  V65  1  0.40000000  0.60000000  0.40000000  1
  V  V66  1  0.40000000  0.80000000  0.00000000  1
  V  V67  1  0.40000000  0.80000000  0.20000000  1
  V  V68  1  0.40000000  0.80000000  0.40000000  1
  V  V69  1  0.40000000  0.80000000  0.80000000  1
  V  V70  1  0.60000000  0.00000000  0.60000000  1
  V  V71  1  0.60000000  0.20000000  0.80000000  1
  V  V72  1  0.60000000  0.40000000  0.20000000  1
  V  V73  1  0.60000000  0.40000000  0.40000000  1
  V  V74  1  0.60000000  0.40000000  0.60000000  1
  V  V75  1  0.60000000  0.60000000  0.60000000  1
  V  V76  1  0.60000000  0.80000000  0.20000000  1
  V  V77  1  0.60000000  0.80000000  0.60000000  1
  V  V78  1  0.80000000  0.00000000  0.00000000  1
  V  V79  1  0.80000000  1.00000000  0.20000000  1
  V  V80  1  0.80000000  1.00000000  0.80000000  1
  V  V81  1  0.80000000  0.40000000  0.00000000  1
  V  V82  1  0.80000000  0.40000000  0.40000000  1
  V  V83  1  0.80000000  0.60000000  0.00000000  1
  V  V84  1  0.80000000  0.60000000  0.20000000  1
  V  V85  1  0.80000000  0.60000000  0.40000000  1
  V  V86  1  0.80000000  0.60000000  0.60000000  1
  V  V87  1  0.80000000  0.80000000  0.00000000  1
  V  V88  1  0.80000000  0.80000000  0.20000000  1
  Cr  Cr89  1  0.00000000  0.00000000  0.60000000  1
  Cr  Cr90  1  0.00000000  0.40000000  0.60000000  1
  Cr  Cr91  1  0.00000000  0.40000000  0.80000000  1
  Cr  Cr92  1  0.00000000  0.60000000  0.40000000  1
  Cr  Cr93  1  0.20000000  1.00000000  0.60000000  1
  Cr  Cr94  1  0.20000000  0.20000000  0.20000000  1
  Cr  Cr95  1  0.20000000  0.40000000  0.00000000  1
  Cr  Cr96  1  0.60000000  0.20000000  0.20000000  1
  Cr  Cr97  1  0.60000000  0.60000000  0.80000000  1
  W  W98  1  0.00000000  0.40000000  0.00000000  1
  W  W99  1  0.00000000  0.40000000  0.20000000  1
  W  W100  1  0.00000000  0.60000000  0.20000000  1
  W  W101  1  0.00000000  0.80000000  0.40000000  1
  W  W102  1  0.20000000  0.00000000  0.80000000  1
  W  W103  1  0.20000000  0.20000000  0.00000000  1
  W  W104  1  0.20000000  0.20000000  0.60000000  1
  W  W105  1  0.20000000  0.40000000  0.20000000  1
  W  W106  1  0.20000000  0.60000000  0.80000000  1
  W  W107  1  0.20000000  0.80000000  0.20000000  1
  W  W108  1  0.40000000  0.00000000  0.20000000  1
  W  W109  1  0.40000000  0.20000000  0.40000000  1
  W  W110  1  0.40000000  0.40000000  0.60000000  1
  W  W111  1  0.40000000  0.60000000  0.80000000  1
  W  W112  1  0.40000000  0.80000000  0.60000000  1
  W  W113  1  0.60000000  0.00000000  0.40000000  1
  W  W114  1  0.60000000  1.00000000  0.80000000  1
  W  W115  1  0.60000000  0.20000000  0.00000000  1
  W  W116  1  0.60000000  0.60000000  0.00000000  1
  W  W117  1  0.60000000  0.60000000  0.40000000  1
  W  W118  1  0.60000000  0.80000000  0.40000000  1
  W  W119  1  0.80000000  0.20000000  0.00000000  1
  W  W120  1  0.80000000  0.20000000  0.80000000  1
  W  W121  1  0.80000000  0.40000000  0.20000000  1
  W  W122  1  0.80000000  0.40000000  0.60000000  1
  W  W123  1  0.80000000  0.40000000  0.80000000  1
  W  W124  1  0.80000000  0.60000000  0.80000000  1
