# generated using pymatgen
data_Ti19(V13Cr2)3
_symmetry_space_group_name_H-M   'P 1'
_cell_length_a   10.42694586
_cell_length_b   10.42694586
_cell_length_c   10.42694586
_cell_angle_alpha   109.47122063
_cell_angle_beta   109.47122063
_cell_angle_gamma   109.47122063
_symmetry_Int_Tables_number   1
_chemical_formula_structural   Ti19(V13Cr2)3
_chemical_formula_sum   'Ti19 V39 Cr6'
_cell_volume   872.66883200
_cell_formula_units_Z   1
loop_
 _symmetry_equiv_pos_site_id
 _symmetry_equiv_pos_as_xyz
  1  'x, y, z'
loop_
 _atom_site_type_symbol
 _atom_site_label
 _atom_site_symmetry_multiplicity
 _atom_site_fract_x
 _atom_site_fract_y
 _atom_site_fract_z
 _atom_site_occupancy
  Ti  Ti0  1  0.00000000  0.00000000  0.00000000  1
  V  V1  1  0.00000000  0.00000000  0.25000000  1
  Ti  Ti2  1  0.00000000  0.00000000  0.50000000  1
  V  V3  1  0.00000000  0.00000000  0.75000000  1
  V  V4  1  0.00000000  0.25000000  0.00000000  1
  Ti  Ti5  1  0.00000000  0.25000000  0.25000000  1
  V  V6  1  0.00000000  0.25000000  0.50000000  1
  V  V7  1  0.00000000  0.25000000  0.75000000  1
  Cr  Cr8  1  0.00000000  0.50000000  0.00000000  1
  V  V9  1  0.00000000  0.50000000  0.25000000  1
  Ti  Ti10  1  0.00000000  0.50000000  0.50000000  1
  V  V11  1  0.00000000  0.50000000  0.75000000  1
  V  V12  1  0.00000000  0.75000000  0.00000000  1
  Ti  Ti13  1  0.00000000  0.75000000  0.25000000  1
  V  V14  1  0.00000000  0.75000000  0.50000000  1
  Cr  Cr15  1  0.00000000  0.75000000  0.75000000  1
  V  V16  1  0.25000000  0.00000000  0.00000000  1
  Cr  Cr17  1  0.25000000  0.00000000  0.25000000  1
  V  V18  1  0.25000000  0.00000000  0.50000000  1
  Ti  Ti19  1  0.25000000  0.00000000  0.75000000  1
  Cr  Cr20  1  0.25000000  0.25000000  0.00000000  1
  V  V21  1  0.25000000  0.25000000  0.25000000  1
  Ti  Ti22  1  0.25000000  0.25000000  0.50000000  1
  V  V23  1  0.25000000  0.25000000  0.75000000  1
  V  V24  1  0.25000000  0.50000000  0.00000000  1
  V  V25  1  0.25000000  0.50000000  0.25000000  1
  V  V26  1  0.25000000  0.50000000  0.50000000  1
  Ti  Ti27  1  0.25000000  0.50000000  0.75000000  1
  Ti  Ti28  1  0.25000000  0.75000000  0.00000000  1
  V  V29  1  0.25000000  0.75000000  0.25000000  1
  Cr  Cr30  1  0.25000000  0.75000000  0.50000000  1
  V  V31  1  0.25000000  0.75000000  0.75000000  1
  Ti  Ti32  1  0.50000000  0.00000000  0.00000000  1
  V  V33  1  0.50000000  0.00000000  0.25000000  1
  V  V34  1  0.50000000  0.00000000  0.50000000  1
  V  V35  1  0.50000000  0.00000000  0.75000000  1
  V  V36  1  0.50000000  0.25000000  0.00000000  1
  Ti  Ti37  1  0.50000000  0.25000000  0.25000000  1
  V  V38  1  0.50000000  0.25000000  0.50000000  1
  Ti  Ti39  1  0.50000000  0.25000000  0.75000000  1
  Ti  Ti40  1  0.50000000  0.50000000  0.00000000  1
  V  V41  1  0.50000000  0.50000000  0.25000000  1
  V  V42  1  0.50000000  0.50000000  0.50000000  1
  V  V43  1  0.50000000  0.50000000  0.75000000  1
  V  V44  1  0.50000000  0.75000000  0.00000000  1
  V  V45  1  0.50000000  0.75000000  0.25000000  1
  V  V46  1  0.50000000  0.75000000  0.50000000  1
  Ti  Ti47  1  0.50000000  0.75000000  0.75000000  1
  V  V48  1  0.75000000  0.00000000  0.00000000  1
  Ti  Ti49  1  0.75000000  0.00000000  0.25000000  1
  V  V50  1  0.75000000  0.00000000  0.50000000  1
  V  V51  1  0.75000000  0.00000000  0.75000000  1
  Ti  Ti52  1  0.75000000  0.25000000  0.00000000  1
  V  V53  1  0.75000000  0.25000000  0.25000000  1
  Cr  Cr54  1  0.75000000  0.25000000  0.50000000  1
  V  V55  1  0.75000000  0.25000000  0.75000000  1
  V  V56  1  0.75000000  0.50000000  0.00000000  1
  Ti  Ti57  1  0.75000000  0.50000000  0.25000000  1
  V  V58  1  0.75000000  0.50000000  0.50000000  1
  Ti  Ti59  1  0.75000000  0.50000000  0.75000000  1
  Ti  Ti60  1  0.75000000  0.75000000  0.00000000  1
  V  V61  1  0.75000000  0.75000000  0.25000000  1
  V  V62  1  0.75000000  0.75000000  0.50000000  1
  V  V63  1  0.75000000  0.75000000  0.75000000  1
