# generated using pymatgen
data_Zr2Ti4V47Cr6W5
_symmetry_space_group_name_H-M   'P 1'
_cell_length_a   10.42694586
_cell_length_b   10.42694586
_cell_length_c   10.42694586
_cell_angle_alpha   109.47122063
_cell_angle_beta   109.47122063
_cell_angle_gamma   109.47122063
_symmetry_Int_Tables_number   1
_chemical_formula_structural   Zr2Ti4V47Cr6W5
_chemical_formula_sum   'Zr2 Ti4 V47 Cr6 W5'
_cell_volume   872.66883200
_cell_formula_units_Z   1
loop_
 _symmetry_equiv_pos_site_id
 _symmetry_equiv_pos_as_xyz
  1  'x, y, z'
loop_
 _atom_site_type_symbol
 _atom_site_label
 _atom_site_symmetry_multiplicity
 _atom_site_fract_x
 _atom_site_fract_y
 _atom_site_fract_z
 _atom_site_occupancy
  Cr  Cr0  1  0.00000000  0.00000000  0.00000000  1
  V  V1  1  0.00000000  0.00000000  0.25000000  1
  V  V2  1  0.00000000  0.00000000  0.50000000  1
  Zr  Zr3  1  0.00000000  0.00000000  0.75000000  1
  V  V4  1  0.00000000  0.25000000  0.00000000  1
  V  V5  1  0.00000000  0.25000000  0.25000000  1
  V  V6  1  0.00000000  0.25000000  0.50000000  1
  V  V7  1  0.00000000  0.25000000  0.75000000  1
  W  W8  1  0.00000000  0.50000000  0.00000000  1
  Cr  Cr9  1  0.00000000  0.50000000  0.25000000  1
  V  V10  1  0.00000000  0.50000000  0.50000000  1
  V  V11  1  0.00000000  0.50000000  0.75000000  1
  Ti  Ti12  1  0.00000000  0.75000000  0.00000000  1
  V  V13  1  0.00000000  0.75000000  0.25000000  1
  V  V14  1  0.00000000  0.75000000  0.50000000  1
  V  V15  1  0.00000000  0.75000000  0.75000000  1
  Zr  Zr16  1  0.25000000  0.00000000  0.00000000  1
  V  V17  1  0.25000000  0.00000000  0.25000000  1
  Cr  Cr18  1  0.25000000  0.00000000  0.50000000  1
  V  V19  1  0.25000000  0.00000000  0.75000000  1
  W  W20  1  0.25000000  0.25000000  0.00000000  1
  V  V21  1  0.25000000  0.25000000  0.25000000  1
  V  V22  1  0.25000000  0.25000000  0.50000000  1
  V  V23  1  0.25000000  0.25000000  0.75000000  1
  V  V24  1  0.25000000  0.50000000  0.00000000  1
  V  V25  1  0.25000000  0.50000000  0.25000000  1
  Cr  Cr26  1  0.25000000  0.50000000  0.50000000  1
  V  V27  1  0.25000000  0.50000000  0.75000000  1
  V  V28  1  0.25000000  0.75000000  0.00000000  1
  V  V29  1  0.25000000  0.75000000  0.25000000  1
  V  V30  1  0.25000000  0.75000000  0.50000000  1
  V  V31  1  0.25000000  0.75000000  0.75000000  1
  V  V32  1  0.50000000  0.00000000  0.00000000  1
  V  V33  1  0.50000000  0.00000000  0.25000000  1
  Ti  Ti34  1  0.50000000  0.00000000  0.50000000  1
  Cr  Cr35  1  0.50000000  0.00000000  0.75000000  1
  Ti  Ti36  1  0.50000000  0.25000000  0.00000000  1
  V  V37  1  0.50000000  0.25000000  0.25000000  1
  W  W38  1  0.50000000  0.25000000  0.50000000  1
  Ti  Ti39  1  0.50000000  0.25000000  0.75000000  1
  V  V40  1  0.50000000  0.50000000  0.00000000  1
  V  V41  1  0.50000000  0.50000000  0.25000000  1
  W  W42  1  0.50000000  0.50000000  0.50000000  1
  V  V43  1  0.50000000  0.50000000  0.75000000  1
  V  V44  1  0.50000000  0.75000000  0.00000000  1
  V  V45  1  0.50000000  0.75000000  0.25000000  1
  V  V46  1  0.50000000  0.75000000  0.50000000  1
  V  V47  1  0.50000000  0.75000000  0.75000000  1
  V  V48  1  0.75000000  0.00000000  0.00000000  1
  V  V49  1  0.75000000  0.00000000  0.25000000  1
  V  V50  1  0.75000000  0.00000000  0.50000000  1
  V  V51  1  0.75000000  0.00000000  0.75000000  1
  V  V52  1  0.75000000  0.25000000  0.00000000  1
  V  V53  1  0.75000000  0.25000000  0.25000000  1
  W  W54  1  0.75000000  0.25000000  0.50000000  1
  V  V55  1  0.75000000  0.25000000  0.75000000  1
  Cr  Cr56  1  0.75000000  0.50000000  0.00000000  1
  V  V57  1  0.75000000  0.50000000  0.25000000  1
  V  V58  1  0.75000000  0.50000000  0.50000000  1
  V  V59  1  0.75000000  0.50000000  0.75000000  1
  V  V60  1  0.75000000  0.75000000  0.00000000  1
  V  V61  1  0.75000000  0.75000000  0.25000000  1
  V  V62  1  0.75000000  0.75000000  0.50000000  1
  V  V63  1  0.75000000  0.75000000  0.75000000  1
