# generated using pymatgen
data_Ti6V39Cr19
_symmetry_space_group_name_H-M   'P 1'
_cell_length_a   10.42694586
_cell_length_b   10.42694586
_cell_length_c   10.42694586
_cell_angle_alpha   109.47122063
_cell_angle_beta   109.47122063
_cell_angle_gamma   109.47122063
_symmetry_Int_Tables_number   1
_chemical_formula_structural   Ti6V39Cr19
_chemical_formula_sum   'Ti6 V39 Cr19'
_cell_volume   872.66883200
_cell_formula_units_Z   1
loop_
 _symmetry_equiv_pos_site_id
 _symmetry_equiv_pos_as_xyz
  1  'x, y, z'
loop_
 _atom_site_type_symbol
 _atom_site_label
 _atom_site_symmetry_multiplicity
 _atom_site_fract_x
 _atom_site_fract_y
 _atom_site_fract_z
 _atom_site_occupancy
  V  V0  1  0.00000000  0.00000000  0.00000000  1
  Cr  Cr1  1  0.00000000  0.00000000  0.25000000  1
  V  V2  1  0.00000000  0.00000000  0.50000000  1
  Ti  Ti3  1  0.00000000  0.00000000  0.75000000  1
  Cr  Cr4  1  0.00000000  0.25000000  0.00000000  1
  V  V5  1  0.00000000  0.25000000  0.25000000  1
  Ti  Ti6  1  0.00000000  0.25000000  0.50000000  1
  V  V7  1  0.00000000  0.25000000  0.75000000  1
  V  V8  1  0.00000000  0.50000000  0.00000000  1
  Cr  Cr9  1  0.00000000  0.50000000  0.25000000  1
  V  V10  1  0.00000000  0.50000000  0.50000000  1
  Cr  Cr11  1  0.00000000  0.50000000  0.75000000  1
  Cr  Cr12  1  0.00000000  0.75000000  0.00000000  1
  V  V13  1  0.00000000  0.75000000  0.25000000  1
  Cr  Cr14  1  0.00000000  0.75000000  0.50000000  1
  V  V15  1  0.00000000  0.75000000  0.75000000  1
  Cr  Cr16  1  0.25000000  0.00000000  0.00000000  1
  V  V17  1  0.25000000  0.00000000  0.25000000  1
  Cr  Cr18  1  0.25000000  0.00000000  0.50000000  1
  V  V19  1  0.25000000  0.00000000  0.75000000  1
  V  V20  1  0.25000000  0.25000000  0.00000000  1
  V  V21  1  0.25000000  0.25000000  0.25000000  1
  V  V22  1  0.25000000  0.25000000  0.50000000  1
  Ti  Ti23  1  0.25000000  0.25000000  0.75000000  1
  Ti  Ti24  1  0.25000000  0.50000000  0.00000000  1
  Cr  Cr25  1  0.25000000  0.50000000  0.25000000  1
  V  V26  1  0.25000000  0.50000000  0.50000000  1
  Cr  Cr27  1  0.25000000  0.50000000  0.75000000  1
  V  V28  1  0.25000000  0.75000000  0.00000000  1
  V  V29  1  0.25000000  0.75000000  0.25000000  1
  V  V30  1  0.25000000  0.75000000  0.50000000  1
  V  V31  1  0.25000000  0.75000000  0.75000000  1
  V  V32  1  0.50000000  0.00000000  0.00000000  1
  V  V33  1  0.50000000  0.00000000  0.25000000  1
  V  V34  1  0.50000000  0.00000000  0.50000000  1
  Cr  Cr35  1  0.50000000  0.00000000  0.75000000  1
  Cr  Cr36  1  0.50000000  0.25000000  0.00000000  1
  V  V37  1  0.50000000  0.25000000  0.25000000  1
  V  V38  1  0.50000000  0.25000000  0.50000000  1
  V  V39  1  0.50000000  0.25000000  0.75000000  1
  V  V40  1  0.50000000  0.50000000  0.00000000  1
  Cr  Cr41  1  0.50000000  0.50000000  0.25000000  1
  V  V42  1  0.50000000  0.50000000  0.50000000  1
  V  V43  1  0.50000000  0.50000000  0.75000000  1
  V  V44  1  0.50000000  0.75000000  0.00000000  1
  V  V45  1  0.50000000  0.75000000  0.25000000  1
  V  V46  1  0.50000000  0.75000000  0.50000000  1
  V  V47  1  0.50000000  0.75000000  0.75000000  1
  Cr  Cr48  1  0.75000000  0.00000000  0.00000000  1
  V  V49  1  0.75000000  0.00000000  0.25000000  1
  Ti  Ti50  1  0.75000000  0.00000000  0.50000000  1
  V  V51  1  0.75000000  0.00000000  0.75000000  1
  V  V52  1  0.75000000  0.25000000  0.00000000  1
  Cr  Cr53  1  0.75000000  0.25000000  0.25000000  1
  V  V54  1  0.75000000  0.25000000  0.50000000  1
  Cr  Cr55  1  0.75000000  0.25000000  0.75000000  1
  Cr  Cr56  1  0.75000000  0.50000000  0.00000000  1
  V  V57  1  0.75000000  0.50000000  0.25000000  1
  Cr  Cr58  1  0.75000000  0.50000000  0.50000000  1
  V  V59  1  0.75000000  0.50000000  0.75000000  1
  V  V60  1  0.75000000  0.75000000  0.00000000  1
  Cr  Cr61  1  0.75000000  0.75000000  0.25000000  1
  V  V62  1  0.75000000  0.75000000  0.50000000  1
  Ti  Ti63  1  0.75000000  0.75000000  0.75000000  1
