# generated using pymatgen
data_Zr13Ti17V11Cr14W9
_symmetry_space_group_name_H-M   'P 1'
_cell_length_a   10.42694586
_cell_length_b   10.42694586
_cell_length_c   10.42694586
_cell_angle_alpha   109.47122063
_cell_angle_beta   109.47122063
_cell_angle_gamma   109.47122063
_symmetry_Int_Tables_number   1
_chemical_formula_structural   Zr13Ti17V11Cr14W9
_chemical_formula_sum   'Zr13 Ti17 V11 Cr14 W9'
_cell_volume   872.66883200
_cell_formula_units_Z   1
loop_
 _symmetry_equiv_pos_site_id
 _symmetry_equiv_pos_as_xyz
  1  'x, y, z'
loop_
 _atom_site_type_symbol
 _atom_site_label
 _atom_site_symmetry_multiplicity
 _atom_site_fract_x
 _atom_site_fract_y
 _atom_site_fract_z
 _atom_site_occupancy
  Ti  Ti0  1  0.00000000  0.00000000  0.00000000  1
  W  W1  1  0.00000000  1.00000000  0.25000000  1
  Zr  Zr2  1  0.00000000  1.00000000  0.50000000  1
  Zr  Zr3  1  0.00000000  1.00000000  0.75000000  1
  Cr  Cr4  1  0.00000000  0.25000000  1.00000000  1
  Cr  Cr5  1  0.00000000  0.25000000  0.25000000  1
  V  V6  1  0.00000000  0.25000000  0.50000000  1
  Ti  Ti7  1  0.00000000  0.25000000  0.75000000  1
  Cr  Cr8  1  0.00000000  0.50000000  1.00000000  1
  Zr  Zr9  1  0.00000000  0.50000000  0.25000000  1
  Cr  Cr10  1  0.00000000  0.50000000  0.50000000  1
  Ti  Ti11  1  0.00000000  0.50000000  0.75000000  1
  V  V12  1  0.00000000  0.75000000  0.00000000  1
  Cr  Cr13  1  0.00000000  0.75000000  0.25000000  1
  Ti  Ti14  1  0.00000000  0.75000000  0.50000000  1
  W  W15  1  0.00000000  0.75000000  0.75000000  1
  V  V16  1  0.25000000  0.00000000  0.00000000  1
  Zr  Zr17  1  0.25000000  0.00000000  0.25000000  1
  Cr  Cr18  1  0.25000000  1.00000000  0.50000000  1
  Ti  Ti19  1  0.25000000  1.00000000  0.75000000  1
  V  V20  1  0.25000000  0.25000000  1.00000000  1
  Zr  Zr21  1  0.25000000  0.25000000  0.25000000  1
  V  V22  1  0.25000000  0.25000000  0.50000000  1
  Zr  Zr23  1  0.25000000  0.25000000  0.75000000  1
  Ti  Ti24  1  0.25000000  0.50000000  1.00000000  1
  Zr  Zr25  1  0.25000000  0.50000000  0.25000000  1
  Cr  Cr26  1  0.25000000  0.50000000  0.50000000  1
  Cr  Cr27  1  0.25000000  0.50000000  0.75000000  1
  V  V28  1  0.25000000  0.75000000  1.00000000  1
  Zr  Zr29  1  0.25000000  0.75000000  0.25000000  1
  Zr  Zr30  1  0.25000000  0.75000000  0.50000000  1
  Cr  Cr31  1  0.25000000  0.75000000  0.75000000  1
  Ti  Ti32  1  0.50000000  0.00000000  0.00000000  1
  Ti  Ti33  1  0.50000000  0.00000000  0.25000000  1
  W  W34  1  0.50000000  0.00000000  0.50000000  1
  Cr  Cr35  1  0.50000000  1.00000000  0.75000000  1
  Ti  Ti36  1  0.50000000  0.25000000  0.00000000  1
  Ti  Ti37  1  0.50000000  0.25000000  0.25000000  1
  Ti  Ti38  1  0.50000000  0.25000000  0.50000000  1
  Ti  Ti39  1  0.50000000  0.25000000  0.75000000  1
  Zr  Zr40  1  0.50000000  0.50000000  1.00000000  1
  V  V41  1  0.50000000  0.50000000  0.25000000  1
  W  W42  1  0.50000000  0.50000000  0.50000000  1
  Zr  Zr43  1  0.50000000  0.50000000  0.75000000  1
  W  W44  1  0.50000000  0.75000000  1.00000000  1
  V  V45  1  0.50000000  0.75000000  0.25000000  1
  W  W46  1  0.50000000  0.75000000  0.50000000  1
  Cr  Cr47  1  0.50000000  0.75000000  0.75000000  1
  W  W48  1  0.75000000  0.00000000  0.00000000  1
  V  V49  1  0.75000000  0.00000000  0.25000000  1
  Ti  Ti50  1  0.75000000  0.00000000  0.50000000  1
  Cr  Cr51  1  0.75000000  0.00000000  0.75000000  1
  Cr  Cr52  1  0.75000000  0.25000000  0.00000000  1
  V  V53  1  0.75000000  0.25000000  0.25000000  1
  Cr  Cr54  1  0.75000000  0.25000000  0.50000000  1
  V  V55  1  0.75000000  0.25000000  0.75000000  1
  Ti  Ti56  1  0.75000000  0.50000000  1.00000000  1
  Zr  Zr57  1  0.75000000  0.50000000  0.25000000  1
  Ti  Ti58  1  0.75000000  0.50000000  0.50000000  1
  W  W59  1  0.75000000  0.50000000  0.75000000  1
  Zr  Zr60  1  0.75000000  0.75000000  1.00000000  1
  Ti  Ti61  1  0.75000000  0.75000000  0.25000000  1
  Ti  Ti62  1  0.75000000  0.75000000  0.50000000  1
  W  W63  1  0.75000000  0.75000000  0.75000000  1
