# generated using pymatgen
data_Ti3V58Cr3
_symmetry_space_group_name_H-M   'P 1'
_cell_length_a   10.39230485
_cell_length_b   10.39230485
_cell_length_c   10.39230485
_cell_angle_alpha   109.47122063
_cell_angle_beta   109.47122063
_cell_angle_gamma   109.47122063
_symmetry_Int_Tables_number   1
_chemical_formula_structural   Ti3V58Cr3
_chemical_formula_sum   'Ti3 V58 Cr3'
_cell_volume   864.00000000
_cell_formula_units_Z   1
loop_
 _symmetry_equiv_pos_site_id
 _symmetry_equiv_pos_as_xyz
  1  'x, y, z'
loop_
 _atom_site_type_symbol
 _atom_site_label
 _atom_site_symmetry_multiplicity
 _atom_site_fract_x
 _atom_site_fract_y
 _atom_site_fract_z
 _atom_site_occupancy
  Ti  Ti0  1  0.25477874  0.00268067  0.74548988  1
  Ti  Ti1  1  0.50410210  0.25468350  0.75606019  1
  Ti  Ti2  1  0.50580509  0.75394797  0.75365799  1
  V  V3  1  0.74749261  0.00248676  0.00217118  1
  V  V4  1  0.50298913  0.00987591  0.00458912  1
  V  V5  1  0.75040742  0.25295415  0.00065656  1
  V  V6  1  0.74449763  0.99881496  0.24569878  1
  V  V7  1  0.25085419  0.99252861  0.99438078  1
  V  V8  1  0.49438630  0.24845651  0.99442513  1
  V  V9  1  0.75471463  0.49991019  0.00077444  1
  V  V10  1  0.75601024  0.25859868  0.25391699  1
  V  V11  1  0.74781467  0.00246750  0.49339894  1
  V  V12  1  0.00053148  0.99250492  0.99569212  1
  V  V13  1  0.24679541  0.25169730  0.00046058  1
  V  V14  1  0.50531677  0.50200435  0.00236841  1
  V  V15  1  0.25421392  0.99931261  0.24267816  1
  V  V16  1  0.50246385  0.25064868  0.25055126  1
  V  V17  1  0.75343704  0.49312770  0.24815136  1
  V  V18  1  0.49742224  0.99909254  0.49963530  1
  V  V19  1  0.75664424  0.26108356  0.50684722  1
  V  V20  1  0.74856746  0.99895443  0.74707033  1
  V  V21  1  0.99522587  0.24686904  0.99750371  1
  V  V22  1  0.24129537  0.49873868  0.99542356  1
  V  V23  1  0.49782506  0.75256041  0.00178985  1
  V  V24  1  0.00404113  0.00307785  0.25259487  1
  V  V25  1  0.24935307  0.25100154  0.25066509  1
  V  V26  1  0.49564681  0.50201631  0.25165951  1
  V  V27  1  0.74698398  0.74194827  0.24910767  1
  V  V28  1  0.24907186  0.99965510  0.50128015  1
  V  V29  1  0.50402570  0.25446832  0.50011882  1
  V  V30  1  0.75591541  0.50075309  0.49780939  1
  V  V31  1  0.50945386  0.00379043  0.75630540  1
  V  V32  1  0.00109761  0.49845780  0.99845680  1
  V  V33  1  0.24783443  0.74457350  0.00092430  1
  V  V34  1  0.00000157  0.24873148  0.24947767  1
  V  V35  1  0.24602270  0.49234033  0.24571151  1
  V  V36  1  0.49706659  0.74915347  0.24924429  1
  V  V37  1  0.99870384  0.99895531  0.49973071  1
  V  V38  1  0.25276400  0.26105905  0.50347112  1
  V  V39  1  0.49956172  0.49750270  0.49958935  1
  V  V40  1  0.74827766  0.74974729  0.50015128  1
  V  V41  1  0.74763418  0.49424617  0.74670778  1
  V  V42  1  0.99661676  0.75158084  0.99800782  1
  V  V43  1  0.00240009  0.50009880  0.25338741  1
  V  V44  1  0.24977121  0.75315507  0.24626042  1
  V  V45  1  0.99863088  0.24827682  0.49829437  1
  V  V46  1  0.24536804  0.49329063  0.49309693  1
  V  V47  1  0.50365123  0.74769676  0.50543384  1
  V  V48  1  0.99244773  0.98927667  0.74259773  1
  V  V49  1  0.25394565  0.25070781  0.74885188  1
  V  V50  1  0.49694700  0.50041618  0.75087154  1
  V  V51  1  0.75121149  0.75285920  0.75233273  1
  V  V52  1  0.99578878  0.74603543  0.24081773  1
  V  V53  1  0.99468765  0.50515864  0.50125321  1
  V  V54  1  0.25598833  0.75502863  0.51004667  1
  V  V55  1  0.99862769  0.24588695  0.74186688  1
  V  V56  1  0.25125595  0.50014787  0.75057156  1
  V  V57  1  0.99938120  0.74935236  0.49399017  1
  V  V58  1  0.00030364  0.50229697  0.74250314  1
  V  V59  1  0.25094611  0.74985960  0.74494875  1
  V  V60  1  0.00006741  0.75177787  0.74269836  1
  Cr  Cr61  1  0.49753439  0.99851361  0.24713081  1
  Cr  Cr62  1  0.75107869  0.75091718  0.99620058  1
  Cr  Cr63  1  0.74509995  0.24618548  0.75169627  1
