# generated using pymatgen
data_ZrTi3V24(CrW)2
_symmetry_space_group_name_H-M   'P 1'
_cell_length_a   10.42694586
_cell_length_b   10.42694586
_cell_length_c   10.42694586
_cell_angle_alpha   109.47122063
_cell_angle_beta   109.47122063
_cell_angle_gamma   109.47122063
_symmetry_Int_Tables_number   1
_chemical_formula_structural   ZrTi3V24(CrW)2
_chemical_formula_sum   'Zr2 Ti6 V48 Cr4 W4'
_cell_volume   872.66883200
_cell_formula_units_Z   2
loop_
 _symmetry_equiv_pos_site_id
 _symmetry_equiv_pos_as_xyz
  1  'x, y, z'
loop_
 _atom_site_type_symbol
 _atom_site_label
 _atom_site_symmetry_multiplicity
 _atom_site_fract_x
 _atom_site_fract_y
 _atom_site_fract_z
 _atom_site_occupancy
  Zr  Zr0  1  0.74258039  0.99606937  0.24787456  1
  Zr  Zr1  1  0.99913847  0.50146721  0.75015974  1
  Ti  Ti2  1  0.75198437  0.00255801  0.49896363  1
  Ti  Ti3  1  0.24856747  0.25234266  0.99849361  1
  Ti  Ti4  1  0.50533747  0.49711874  0.00594296  1
  Ti  Ti5  1  0.49752106  0.25077516  0.25112147  1
  Ti  Ti6  1  0.49702626  0.24748507  0.74685563  1
  Ti  Ti7  1  0.25095489  0.75039809  0.74382287  1
  V  V8  1  0.74307897  0.99703849  0.98942644  1
  V  V9  1  0.49890251  0.99962794  0.00026385  1
  V  V10  1  0.74913234  0.24875869  0.00083658  1
  V  V11  1  0.50045319  0.25326837  0.99517842  1
  V  V12  1  0.74358992  0.49376120  0.00003207  1
  V  V13  1  0.50027983  0.99954936  0.25355005  1
  V  V14  1  0.75514584  0.25229935  0.25465519  1
  V  V15  1  0.00658526  0.99618528  0.00404115  1
  V  V16  1  0.74128781  0.74692647  0.98999778  1
  V  V17  1  0.25509958  0.01093642  0.25337314  1
  V  V18  1  0.74979303  0.49526757  0.24655763  1
  V  V19  1  0.49890776  0.99633392  0.49885810  1
  V  V20  1  0.74899020  0.25186897  0.49538547  1
  V  V21  1  0.75506296  0.99817687  0.75416436  1
  V  V22  1  0.00103450  0.24243240  0.99818938  1
  V  V23  1  0.25523526  0.50207829  0.01044362  1
  V  V24  1  0.00151926  0.99809412  0.25215046  1
  V  V25  1  0.24989277  0.24956330  0.24833816  1
  V  V26  1  0.49457288  0.49810111  0.24274823  1
  V  V27  1  0.75715448  0.75446223  0.25409080  1
  V  V28  1  0.24819565  0.00084319  0.50699525  1
  V  V29  1  0.49778634  0.24704156  0.49390728  1
  V  V30  1  0.74977927  0.49808098  0.50436724  1
  V  V31  1  0.74993144  0.25728298  0.75237349  1
  V  V32  1  0.00067718  0.50158268  0.00825522  1
  V  V33  1  0.25068698  0.74837446  0.99961829  1
  V  V34  1  0.00043163  0.25050923  0.24612778  1
  V  V35  1  0.49588779  0.74893286  0.25139376  1
  V  V36  1  0.99773729  0.99922366  0.49825362  1
  V  V37  1  0.25326018  0.24844340  0.50527803  1
  V  V38  1  0.50258415  0.49993056  0.49917315  1
  V  V39  1  0.74912626  0.74968954  0.49870584  1
  V  V40  1  0.25207415  0.00190116  0.75014993  1
  V  V41  1  0.74730183  0.49542498  0.74852014  1
  V  V42  1  0.00323152  0.74584573  0.99228730  1
  V  V43  1  0.98955744  0.49324522  0.24785659  1
  V  V44  1  0.24558904  0.75035452  0.24638348  1
  V  V45  1  0.48978513  0.74052742  0.49261849  1
  V  V46  1  0.99042594  0.99959885  0.74837205  1
  V  V47  1  0.24850117  0.25254625  0.75115508  1
  V  V48  1  0.49592154  0.50212836  0.74993100  1
  V  V49  1  0.74809880  0.74783144  0.74646947  1
  V  V50  1  0.00297266  0.76018255  0.25828281  1
  V  V51  1  0.24352283  0.74938158  0.49925577  1
  V  V52  1  0.25010384  0.50042140  0.75172646  1
  V  V53  1  0.50171177  0.75068223  0.75091168  1
  V  V54  1  0.00786062  0.75309890  0.50105020  1
  V  V55  1  0.99870358  0.75046411  0.75075903  1
  Cr  Cr56  1  0.24387816  0.99833697  0.99881351  1
  Cr  Cr57  1  0.50021084  0.75754488  0.00472727  1
  Cr  Cr58  1  0.99782186  0.24742850  0.49906570  1
  Cr  Cr59  1  0.99534672  0.24595323  0.73962171  1
  W  W60  1  0.50513060  0.00829458  0.75651459  1
  W  W61  1  0.24084990  0.49620069  0.24314766  1
  W  W62  1  0.25416313  0.49958068  0.50423792  1
  W  W63  1  0.00041834  0.50104965  0.50112003  1
