# generated using pymatgen
data_Zr3Ti4V47(CrW)5
_symmetry_space_group_name_H-M   'P 1'
_cell_length_a   10.42694586
_cell_length_b   10.42694586
_cell_length_c   10.42694586
_cell_angle_alpha   109.47122063
_cell_angle_beta   109.47122063
_cell_angle_gamma   109.47122063
_symmetry_Int_Tables_number   1
_chemical_formula_structural   Zr3Ti4V47(CrW)5
_chemical_formula_sum   'Zr3 Ti4 V47 Cr5 W5'
_cell_volume   872.66883200
_cell_formula_units_Z   1
loop_
 _symmetry_equiv_pos_site_id
 _symmetry_equiv_pos_as_xyz
  1  'x, y, z'
loop_
 _atom_site_type_symbol
 _atom_site_label
 _atom_site_symmetry_multiplicity
 _atom_site_fract_x
 _atom_site_fract_y
 _atom_site_fract_z
 _atom_site_occupancy
  Zr  Zr0  1  0.00333452  0.74706497  0.24304063  1
  Zr  Zr1  1  0.99797791  0.24723875  0.74955681  1
  Zr  Zr2  1  0.50234420  0.75046825  0.75190181  1
  Ti  Ti3  1  0.25223725  0.99402970  0.99471024  1
  Ti  Ti4  1  0.24256067  0.00406506  0.24901497  1
  Ti  Ti5  1  0.99925225  0.00457551  0.49979018  1
  Ti  Ti6  1  0.49928430  0.50545911  0.50185408  1
  V  V7  1  0.75856834  0.00435767  0.00687688  1
  V  V8  1  0.49583917  0.99924025  0.99653902  1
  V  V9  1  0.74981146  0.24871012  0.99501526  1
  V  V10  1  0.74085482  0.99266079  0.24615647  1
  V  V11  1  0.50337492  0.24775767  0.99759557  1
  V  V12  1  0.75085216  0.50528742  0.00262041  1
  V  V13  1  0.74752075  0.25443856  0.25166101  1
  V  V14  1  0.74996906  0.99772548  0.50694914  1
  V  V15  1  0.00107732  0.00019858  0.00189942  1
  V  V16  1  0.24755261  0.24579585  0.99609495  1
  V  V17  1  0.49569953  0.49967480  0.00227956  1
  V  V18  1  0.74911679  0.74865317  0.99273961  1
  V  V19  1  0.49923035  0.25079470  0.24881116  1
  V  V20  1  0.75299610  0.49718641  0.25073742  1
  V  V21  1  0.49966534  0.99955131  0.49157086  1
  V  V22  1  0.75208183  0.24940582  0.50339591  1
  V  V23  1  0.00164158  0.25518467  0.00096251  1
  V  V24  1  0.24909262  0.50047066  0.00096904  1
  V  V25  1  0.50229263  0.75296149  0.00015897  1
  V  V26  1  0.99772434  0.99844480  0.24882214  1
  V  V27  1  0.25237810  0.25774324  0.25448252  1
  V  V28  1  0.49845831  0.49804072  0.24976088  1
  V  V29  1  0.74847652  0.75675627  0.25123986  1
  V  V30  1  0.25767486  0.00213562  0.50972276  1
  V  V31  1  0.50162740  0.24933543  0.49737198  1
  V  V32  1  0.74775491  0.50391793  0.50050361  1
  V  V33  1  0.25157215  0.75125895  0.00080759  1
  V  V34  1  0.99572957  0.24640551  0.24873774  1
  V  V35  1  0.24484179  0.49581988  0.24261052  1
  V  V36  1  0.49343169  0.75146756  0.25211446  1
  V  V37  1  0.25250874  0.25133673  0.50624944  1
  V  V38  1  0.75988385  0.75968787  0.50893463  1
  V  V39  1  0.49361618  0.24458279  0.73918680  1
  V  V40  1  0.75464557  0.50139902  0.75273904  1
  V  V41  1  0.99861703  0.75015066  0.99764734  1
  V  V42  1  0.99689052  0.50207318  0.24384343  1
  V  V43  1  0.25171175  0.49866191  0.49480876  1
  V  V44  1  0.49669136  0.74679696  0.49911799  1
  V  V45  1  0.99134061  0.99137830  0.74084928  1
  V  V46  1  0.24849941  0.24658081  0.75392905  1
  V  V47  1  0.50220921  0.50621275  0.75137099  1
  V  V48  1  0.00412329  0.51020635  0.50477927  1
  V  V49  1  0.24454082  0.75026425  0.50335078  1
  V  V50  1  0.25012286  0.50206126  0.75121959  1
  V  V51  1  0.00161796  0.75166758  0.50144832  1
  V  V52  1  0.99118523  0.49876582  0.74613532  1
  V  V53  1  0.24906124  0.75315833  0.74594759  1
  Cr  Cr54  1  0.50333785  0.00818299  0.25242183  1
  Cr  Cr55  1  0.74438856  0.24634483  0.74019427  1
  Cr  Cr56  1  0.24727955  0.99516565  0.75012042  1
  Cr  Cr57  1  0.24839950  0.74509406  0.24548556  1
  Cr  Cr58  1  0.99573310  0.24719499  0.49720674  1
  W  W59  1  0.75202184  0.00351733  0.75015400  1
  W  W60  1  0.49509774  0.99093490  0.74016718  1
  W  W61  1  0.00158689  0.50404734  0.00033284  1
  W  W62  1  0.75107233  0.74932016  0.75305304  1
  W  W63  1  0.99767251  0.74866953  0.74737574  1
