# generated using pymatgen
data_ZrTiV26CrW3
_symmetry_space_group_name_H-M   'P 1'
_cell_length_a   10.46443459
_cell_length_b   10.53327400
_cell_length_c   10.57711870
_cell_angle_alpha   109.77690769
_cell_angle_beta   109.52151595
_cell_angle_gamma   109.28163316
_symmetry_Int_Tables_number   1
_chemical_formula_structural   ZrTiV26CrW3
_chemical_formula_sum   'Zr2 Ti2 V52 Cr2 W6'
_cell_volume   895.61941400
_cell_formula_units_Z   2
loop_
 _symmetry_equiv_pos_site_id
 _symmetry_equiv_pos_as_xyz
  1  'x, y, z'
loop_
 _atom_site_type_symbol
 _atom_site_label
 _atom_site_symmetry_multiplicity
 _atom_site_fract_x
 _atom_site_fract_y
 _atom_site_fract_z
 _atom_site_occupancy
  Zr  Zr0  1  0.75750634  0.25129831  0.00195642  1
  Zr  Zr1  1  0.75014181  0.50720529  0.26082654  1
  Ti  Ti2  1  0.04343416  0.52631866  0.27351829  1
  Ti  Ti3  1  0.75192429  0.51733877  -0.00720290  1
  V  V4  1  0.00352226  -0.00096225  -0.00139466  1
  V  V5  1  0.00321087  0.00289597  0.25466240  1
  V  V6  1  0.00028977  0.00225762  0.50384195  1
  V  V7  1  -0.00343613  -0.00173879  0.74821577  1
  V  V8  1  0.01123856  0.24372087  -0.00506918  1
  V  V9  1  0.00897662  0.24601091  0.25614356  1
  V  V10  1  0.00158512  0.24611334  0.50071308  1
  V  V11  1  0.00092740  0.24626942  0.74818312  1
  V  V12  1  0.01567595  0.50480783  -0.00534976  1
  V  V13  1  0.00747082  0.50257090  0.51109082  1
  V  V14  1  0.00663679  0.50272103  0.75153723  1
  V  V15  1  0.00468265  0.75556734  0.00143000  1
  V  V16  1  0.01026042  0.77087555  0.25854528  1
  V  V17  1  0.00895619  0.76551156  0.51526583  1
  V  V18  1  0.00283840  0.75514005  0.75219345  1
  V  V19  1  0.24328786  -0.00663274  0.00015366  1
  V  V20  1  0.24939872  -0.00068363  0.24834668  1
  V  V21  1  0.24735305  0.00041256  0.49579577  1
  V  V22  1  0.24093243  -0.00533423  0.74734405  1
  V  V23  1  0.24400124  0.24772180  -0.00028662  1
  V  V24  1  0.24787593  0.24475515  0.25057497  1
  V  V25  1  0.24671765  0.24926518  0.49627638  1
  V  V26  1  0.23902915  0.24749883  0.74207879  1
  V  V27  1  0.24743740  0.49842070  -0.00422274  1
  V  V28  1  0.27034987  0.49914588  0.25049700  1
  V  V29  1  0.25236434  0.49832590  0.50235134  1
  V  V30  1  0.24685608  0.49696475  0.74587201  1
  V  V31  1  0.24851190  0.74975040  0.00019543  1
  V  V32  1  0.25502167  0.75495837  0.25062173  1
  V  V33  1  0.26495787  0.76443488  0.51574732  1
  V  V34  1  0.24792490  0.74754891  0.75099171  1
  V  V35  1  0.49043959  -0.00823195  -0.00186591  1
  V  V36  1  0.49483959  -0.00629347  0.24869362  1
  V  V37  1  0.49677014  -0.00659931  0.49289116  1
  V  V38  1  0.48767203  -0.01522354  0.73486861  1
  V  V39  1  0.48969975  0.24455537  0.24921527  1
  V  V40  1  0.49132236  0.24529600  0.49202888  1
  V  V41  1  0.48665022  0.50012109  -0.00081428  1
  V  V42  1  0.49606366  0.50012562  0.49481230  1
  V  V43  1  0.49224605  0.49866371  0.74352478  1
  V  V44  1  0.49910144  0.74740374  0.25335720  1
  V  V45  1  0.50260942  0.75172735  0.50154358  1
  V  V46  1  0.49622500  0.74381529  0.74353119  1
  V  V47  1  0.74929018  -0.00380571  0.49872001  1
  V  V48  1  0.74950429  -0.00626954  0.74253049  1
  V  V49  1  0.74873867  0.22968694  0.26005559  1
  V  V50  1  0.74851185  0.24401068  0.73622223  1
  V  V51  1  0.74903240  0.50278175  0.51097405  1
  V  V52  1  0.75028937  0.75777904  -0.00106216  1
  V  V53  1  0.75264859  0.77205769  0.25693977  1
  V  V54  1  0.74752764  0.75331857  0.50327749  1
  V  V55  1  0.74956038  0.75250839  0.74607686  1
  Cr  Cr56  1  0.48826370  0.50174382  0.25315833  1
  Cr  Cr57  1  0.74967086  -0.00301265  0.25404954  1
  W  W58  1  0.48056011  0.24007685  -0.00772652  1
  W  W59  1  0.48950424  0.24480085  0.74023212  1
  W  W60  1  0.49665322  0.74809256  0.00016784  1
  W  W61  1  0.75115560  -0.00873578  0.00018125  1
  W  W62  1  0.74827895  0.24563055  0.49908886  1
  W  W63  1  0.74930835  0.50350103  0.74388309  1
