# generated using pymatgen
data_Zr2Ti4V47Cr6W5
_symmetry_space_group_name_H-M   'P 1'
_cell_length_a   10.45384069
_cell_length_b   10.55142993
_cell_length_c   10.47762053
_cell_angle_alpha   109.33265369
_cell_angle_beta   109.37316095
_cell_angle_gamma   109.57570657
_symmetry_Int_Tables_number   1
_chemical_formula_structural   Zr2Ti4V47Cr6W5
_chemical_formula_sum   'Zr2 Ti4 V47 Cr6 W5'
_cell_volume   891.11245836
_cell_formula_units_Z   1
loop_
 _symmetry_equiv_pos_site_id
 _symmetry_equiv_pos_as_xyz
  1  'x, y, z'
loop_
 _atom_site_type_symbol
 _atom_site_label
 _atom_site_symmetry_multiplicity
 _atom_site_fract_x
 _atom_site_fract_y
 _atom_site_fract_z
 _atom_site_occupancy
  Zr  Zr0  1  -0.00729470  -0.00609380  0.74737616  1
  Zr  Zr1  1  0.24924444  -0.00389689  0.00221250  1
  Ti  Ti2  1  -0.00368734  0.75395685  -0.00137251  1
  Ti  Ti3  1  0.49462522  -0.00562043  0.50433941  1
  Ti  Ti4  1  0.50311451  0.25266953  0.00659889  1
  Ti  Ti5  1  0.50240031  0.24973568  0.75114757  1
  V  V6  1  -0.00401498  0.00007001  0.24518029  1
  V  V7  1  0.00570712  -0.00010126  0.48913735  1
  V  V8  1  -0.00306670  0.25034582  0.00540849  1
  V  V9  1  0.00299141  0.26173555  0.25862685  1
  V  V10  1  0.00222695  0.24945875  0.49745728  1
  V  V11  1  0.00194742  0.25981409  0.74743832  1
  V  V12  1  0.00559523  0.49850057  0.49327489  1
  V  V13  1  0.00250821  0.49954109  0.74884509  1
  V  V14  1  -0.00074713  0.74638668  0.25405127  1
  V  V15  1  -0.00068481  0.74591181  0.49487478  1
  V  V16  1  -0.01497977  0.71648915  0.72230788  1
  V  V17  1  0.25196499  0.00117014  0.27164870  1
  V  V18  1  0.26184303  -0.00721766  0.72453678  1
  V  V19  1  0.24204861  0.25199947  0.25238000  1
  V  V20  1  0.24580922  0.25377509  0.50206519  1
  V  V21  1  0.24756382  0.25634703  0.75042353  1
  V  V22  1  0.25319795  0.50578793  0.00162433  1
  V  V23  1  0.24455148  0.50658879  0.26099919  1
  V  V24  1  0.25177408  0.50079483  0.74229705  1
  V  V25  1  0.26091752  0.73923712  0.00019616  1
  V  V26  1  0.24637110  0.74479338  0.24621769  1
  V  V27  1  0.24767632  0.74359229  0.49593979  1
  V  V28  1  0.25006034  0.74416312  0.74567750  1
  V  V29  1  0.51210979  -0.00601747  -0.00709869  1
  V  V30  1  0.50545009  -0.00433472  0.24772869  1
  V  V31  1  0.51231072  0.26170490  0.26367774  1
  V  V32  1  0.50829915  0.50708189  -0.00074351  1
  V  V33  1  0.50396443  0.50609084  0.25156068  1
  V  V34  1  0.49844707  0.50530676  0.75482788  1
  V  V35  1  0.50228284  0.75063737  -0.00030903  1
  V  V36  1  0.50136902  0.75222471  0.25270637  1
  V  V37  1  0.49745822  0.74655250  0.49787784  1
  V  V38  1  0.49391388  0.74891696  0.74596052  1
  V  V39  1  0.75543074  0.00126188  0.00399339  1
  V  V40  1  0.75277859  -0.00077294  0.24945107  1
  V  V41  1  0.75127391  -0.00267128  0.49452946  1
  V  V42  1  0.72966576  -0.00130553  0.74774008  1
  V  V43  1  0.75516770  0.25404037  0.00441998  1
  V  V44  1  0.75250765  0.24933618  0.24747855  1
  V  V45  1  0.76064130  0.25284432  0.75546802  1
  V  V46  1  0.76291003  0.50503460  0.24837282  1
  V  V47  1  0.75117943  0.49988536  0.49551582  1
  V  V48  1  0.74413834  0.49774130  0.75531445  1
  V  V49  1  0.74245761  0.74360608  0.00137912  1
  V  V50  1  0.75207222  0.75277380  0.25064111  1
  V  V51  1  0.73908324  0.74086595  0.48421304  1
  V  V52  1  0.74754487  0.74982397  0.75462415  1
  Cr  Cr53  1  -0.01432029  0.00781221  0.01489462  1
  Cr  Cr54  1  0.00066674  0.50037653  0.25328758  1
  Cr  Cr55  1  0.23941724  -0.00578777  0.49224458  1
  Cr  Cr56  1  0.24714222  0.50140700  0.50099335  1
  Cr  Cr57  1  0.50303509  -0.00511343  0.75523627  1
  Cr  Cr58  1  0.75174939  0.50480757  0.00496396  1
  W  W59  1  -0.00190288  0.50018479  0.00543763  1
  W  W60  1  0.25384537  0.26983133  0.01127491  1
  W  W61  1  0.49892737  0.25262842  0.49958753  1
  W  W62  1  0.49592359  0.50501752  0.50303605  1
  W  W63  1  0.75339570  0.24827331  0.49880358  1
