# generated using pymatgen
data_ZrTiV26CrW3
_symmetry_space_group_name_H-M   'P 1'
_cell_length_a   10.51271630
_cell_length_b   10.51409212
_cell_length_c   10.53276312
_cell_angle_alpha   109.48361946
_cell_angle_beta   109.73244456
_cell_angle_gamma   109.37956705
_symmetry_Int_Tables_number   1
_chemical_formula_structural   ZrTiV26CrW3
_chemical_formula_sum   'Zr2 Ti2 V52 Cr2 W6'
_cell_volume   894.17953574
_cell_formula_units_Z   2
loop_
 _symmetry_equiv_pos_site_id
 _symmetry_equiv_pos_as_xyz
  1  'x, y, z'
loop_
 _atom_site_type_symbol
 _atom_site_label
 _atom_site_symmetry_multiplicity
 _atom_site_fract_x
 _atom_site_fract_y
 _atom_site_fract_z
 _atom_site_occupancy
  Zr  Zr0  1  0.24963415  0.50739251  0.75026620  1
  Zr  Zr1  1  0.50170344  0.50166825  0.00208939  1
  Ti  Ti2  1  0.22735438  0.21339918  0.72821709  1
  Ti  Ti3  1  0.75282858  0.24757643  0.24847962  1
  V  V4  1  -0.00085244  -0.00284527  -0.00194042  1
  V  V5  1  0.00400573  0.00409717  0.24827343  1
  V  V6  1  -0.01291128  -0.01406716  0.48649209  1
  V  V7  1  -0.00548262  -0.00471143  0.74962848  1
  V  V8  1  -0.00580658  0.24398300  0.00222687  1
  V  V9  1  -0.01134542  0.24207781  0.48128713  1
  V  V10  1  -0.01195154  0.24647739  0.74828752  1
  V  V11  1  -0.00059859  0.50239581  0.00193577  1
  V  V12  1  0.00521179  0.50870502  0.50558546  1
  V  V13  1  -0.01096169  0.50110732  0.75289532  1
  V  V14  1  0.00483978  0.75562073  0.00302271  1
  V  V15  1  0.00617621  0.75419433  0.25286239  1
  V  V16  1  0.00064936  0.75156992  0.49960119  1
  V  V17  1  0.00362985  0.75296670  0.75239719  1
  V  V18  1  0.24678458  -0.00188318  0.00398661  1
  V  V19  1  0.24906625  -0.00139455  0.24926192  1
  V  V20  1  0.24894928  -0.00517515  0.49401468  1
  V  V21  1  0.24747525  -0.02145952  0.74739417  1
  V  V22  1  0.24244508  0.24507053  0.24912844  1
  V  V23  1  0.24943731  0.24524280  0.48878816  1
  V  V24  1  0.23331017  0.49917753  0.01451073  1
  V  V25  1  0.24936837  0.50324892  0.25533948  1
  V  V26  1  0.24704193  0.49458106  0.48487352  1
  V  V27  1  0.24730463  0.75681260  0.00323352  1
  V  V28  1  0.24985138  0.75673813  0.25524024  1
  V  V29  1  0.25214068  0.75267856  0.50345364  1
  V  V30  1  0.49302342  -0.00481598  -0.00700983  1
  V  V31  1  0.49985572  0.00591910  0.25410907  1
  V  V32  1  0.49883862  -0.00216226  0.49921716  1
  V  V33  1  0.50346999  -0.00274836  0.74655576  1
  V  V34  1  0.50319100  0.23859772  0.00329711  1
  V  V35  1  0.49678198  0.24635633  0.25245038  1
  V  V36  1  0.49722405  0.24343467  0.49278456  1
  V  V37  1  0.49863765  0.50022088  0.26307261  1
  V  V38  1  0.50120438  0.50192365  0.49922533  1
  V  V39  1  0.51455064  0.50114664  0.73404810  1
  V  V40  1  0.51738002  0.78330381  0.01618398  1
  V  V41  1  0.50132980  0.75411944  0.50483844  1
  V  V42  1  0.50220129  0.75631471  0.74722413  1
  V  V43  1  0.75726973  0.00883726  0.00317574  1
  V  V44  1  0.75356489  0.00174148  0.25424621  1
  V  V45  1  0.74925440  0.00209317  0.50449660  1
  V  V46  1  0.74946106  -0.00162519  0.74952751  1
  V  V47  1  0.75094978  0.24615723  -0.00572849  1
  V  V48  1  0.74880379  0.24859187  0.50306202  1
  V  V49  1  0.75006882  0.24497908  0.74744368  1
  V  V50  1  0.76360444  0.50145378  0.00027248  1
  V  V51  1  0.75455690  0.50482158  0.25435519  1
  V  V52  1  0.75519995  0.50254019  0.74856030  1
  V  V53  1  0.76476514  0.76401471  0.26416767  1
  V  V54  1  0.75261138  0.75417949  0.50636904  1
  V  V55  1  0.75505275  0.75782588  0.75119078  1
  Cr  Cr56  1  0.00187408  0.24792131  0.24687603  1
  Cr  Cr57  1  0.25024031  0.76101891  0.74992537  1
  W  W58  1  -0.00039473  0.49817603  0.25070103  1
  W  W59  1  0.24616189  0.24524948  0.00353686  1
  W  W60  1  0.50327002  0.24548062  0.74604418  1
  W  W61  1  0.49965422  0.75494465  0.25602389  1
  W  W62  1  0.75124292  0.49992496  0.49932459  1
  W  W63  1  0.75580165  0.75481771  -0.00040000  1
