# generated using pymatgen
data_ZrTi3V53Cr6W
_symmetry_space_group_name_H-M   'P 1'
_cell_length_a   10.38869929
_cell_length_b   10.38119172
_cell_length_c   10.41915481
_cell_angle_alpha   109.31725303
_cell_angle_beta   109.50647663
_cell_angle_gamma   109.40791305
_symmetry_Int_Tables_number   1
_chemical_formula_structural   ZrTi3V53Cr6W
_chemical_formula_sum   'Zr1 Ti3 V53 Cr6 W1'
_cell_volume   866.94163123
_cell_formula_units_Z   1
loop_
 _symmetry_equiv_pos_site_id
 _symmetry_equiv_pos_as_xyz
  1  'x, y, z'
loop_
 _atom_site_type_symbol
 _atom_site_label
 _atom_site_symmetry_multiplicity
 _atom_site_fract_x
 _atom_site_fract_y
 _atom_site_fract_z
 _atom_site_occupancy
  Zr  Zr0  1  0.24394334  0.74455324  0.50078541  1
  Ti  Ti1  1  -0.00315153  0.49729902  0.50041481  1
  Ti  Ti2  1  0.50506820  0.74713143  0.00183733  1
  Ti  Ti3  1  0.75824979  0.50426017  0.25450422  1
  V  V4  1  -0.00339538  -0.00358563  -0.00423039  1
  V  V5  1  -0.00094665  -0.00021761  0.24918002  1
  V  V6  1  0.00008032  0.00427574  0.75144411  1
  V  V7  1  -0.00054200  0.24337107  -0.00401293  1
  V  V8  1  -0.00103124  0.24366042  0.24603637  1
  V  V9  1  -0.00225197  0.23882262  0.49973481  1
  V  V10  1  -0.00471749  0.24630632  0.74859807  1
  V  V11  1  -0.00847100  0.49373336  -0.01092231  1
  V  V12  1  -0.00890087  0.48050925  0.21688779  1
  V  V13  1  -0.00478411  0.49738374  0.75204070  1
  V  V14  1  -0.00184020  0.75228559  0.00015231  1
  V  V15  1  -0.00402687  0.75091664  0.24416356  1
  V  V16  1  -0.00708274  0.78002241  0.50781183  1
  V  V17  1  -0.00713500  0.75150755  0.75269872  1
  V  V18  1  0.25296768  0.00776824  0.00635345  1
  V  V19  1  0.24881932  0.00170458  0.25078517  1
  V  V20  1  0.24764332  0.01137051  0.49906013  1
  V  V21  1  0.25208357  0.01178743  0.75453890  1
  V  V22  1  0.24726738  0.24607711  -0.00484912  1
  V  V23  1  0.25385082  0.24497946  0.24656584  1
  V  V24  1  0.25197666  0.24803362  0.50303047  1
  V  V25  1  0.25063045  0.49460866  0.24614370  1
  V  V26  1  0.25820089  0.47833477  0.49785158  1
  V  V27  1  0.24553760  0.48833321  0.74527780  1
  V  V28  1  0.24538969  0.75230932  0.00058928  1
  V  V29  1  0.25466077  0.75815220  0.24273623  1
  V  V30  1  0.26014758  0.76056936  0.77811752  1
  V  V31  1  0.50271104  0.00680953  0.00166034  1
  V  V32  1  0.50080740  0.00565307  0.25298046  1
  V  V33  1  0.50781943  0.00872064  0.50644071  1
  V  V34  1  0.51121472  0.01293802  0.76058602  1
  V  V35  1  0.49556398  0.25327334  -0.00013833  1
  V  V36  1  0.49834038  0.24840847  0.49602447  1
  V  V37  1  0.50178604  0.25057055  0.74857301  1
  V  V38  1  0.49687575  0.49325457  0.24676491  1
  V  V39  1  0.50590016  0.50201008  0.50484623  1
  V  V40  1  0.50248705  0.49903923  0.75675742  1
  V  V41  1  0.50533197  0.75481925  0.25976992  1
  V  V42  1  0.51250613  0.75274511  0.49961251  1
  V  V43  1  0.51371114  0.75185419  0.75009821  1
  V  V44  1  0.75202947  -0.00021483  0.00207545  1
  V  V45  1  0.75450635  0.00592352  0.25527071  1
  V  V46  1  0.75246169  0.00093057  0.49998482  1
  V  V47  1  0.75242153  0.00257820  0.75078179  1
  V  V48  1  0.74701553  0.24812030  -0.00730424  1
  V  V49  1  0.73564665  0.23651568  0.24590001  1
  V  V50  1  0.74946195  0.24952852  0.50647515  1
  V  V51  1  0.74274660  0.49956267  -0.00667959  1
  V  V52  1  0.73625656  0.49062476  0.49916436  1
  V  V53  1  0.74740335  0.49697450  0.74850026  1
  V  V54  1  0.75606030  0.75070637  -0.00529693  1
  V  V55  1  0.74750747  0.75404854  0.24732843  1
  V  V56  1  0.74867910  0.75007563  0.50330852  1
  Cr  Cr57  1  0.00042346  0.00657757  0.50273770  1
  Cr  Cr58  1  0.25130145  0.24974527  0.75198362  1
  Cr  Cr59  1  0.49849573  0.25089163  0.25136866  1
  Cr  Cr60  1  0.50070672  0.49282146  -0.00173382  1
  Cr  Cr61  1  0.74710300  0.24782474  0.74577990  1
  Cr  Cr62  1  0.75264859  0.75140101  0.75324988  1
  W  W63  1  0.25382897  0.49900407  -0.00019592  1
