# generated using pymatgen
data_ZrTiV55Cr3W4
_symmetry_space_group_name_H-M   'P 1'
_cell_length_a   10.44106832
_cell_length_b   10.42704122
_cell_length_c   10.40967805
_cell_angle_alpha   109.22500902
_cell_angle_beta   109.47910909
_cell_angle_gamma   109.48742845
_symmetry_Int_Tables_number   1
_chemical_formula_structural   ZrTiV55Cr3W4
_chemical_formula_sum   'Zr1 Ti1 V55 Cr3 W4'
_cell_volume   874.79044270
_cell_formula_units_Z   1
loop_
 _symmetry_equiv_pos_site_id
 _symmetry_equiv_pos_as_xyz
  1  'x, y, z'
loop_
 _atom_site_type_symbol
 _atom_site_label
 _atom_site_symmetry_multiplicity
 _atom_site_fract_x
 _atom_site_fract_y
 _atom_site_fract_z
 _atom_site_occupancy
  Zr  Zr0  1  0.50441274  0.50095998  0.00512791  1
  Ti  Ti1  1  0.74917006  0.49031679  0.24991630  1
  V  V2  1  -0.00030332  -0.00156460  -0.00215533  1
  V  V3  1  -0.00013174  0.00335011  0.50294664  1
  V  V4  1  -0.00231098  -0.00043459  0.75047155  1
  V  V5  1  -0.00406668  0.25124451  0.25192551  1
  V  V6  1  0.00365024  0.25343367  0.50283587  1
  V  V7  1  -0.00285248  0.24955024  0.74567829  1
  V  V8  1  -0.00167543  0.49866086  -0.00354711  1
  V  V9  1  0.00905815  0.50066950  0.25505877  1
  V  V10  1  -0.00294153  0.49471080  0.49749830  1
  V  V11  1  -0.00121253  0.49834064  0.74648573  1
  V  V12  1  0.00096733  0.75171440  -0.00267266  1
  V  V13  1  0.00072271  0.75018019  0.25023686  1
  V  V14  1  0.00114303  0.74970449  0.75235599  1
  V  V15  1  0.24869623  -0.00133781  0.00186872  1
  V  V16  1  0.25304584  0.00274039  0.24928361  1
  V  V17  1  0.25932825  0.00713991  0.50203032  1
  V  V18  1  0.25088188  -0.00156604  0.75023627  1
  V  V19  1  0.24742846  0.24527224  -0.00126152  1
  V  V20  1  0.25224358  0.24982281  0.25653653  1
  V  V21  1  0.24070504  0.24082952  0.73224706  1
  V  V22  1  0.23780526  0.50095821  -0.00581539  1
  V  V23  1  0.24953365  0.49972100  0.25352164  1
  V  V24  1  0.24991816  0.49695520  0.50170148  1
  V  V25  1  0.24706165  0.50135883  0.74747167  1
  V  V26  1  0.24911066  0.75148847  -0.00298839  1
  V  V27  1  0.25338525  0.74991033  0.50500420  1
  V  V28  1  0.25134449  0.74764350  0.74997705  1
  V  V29  1  0.50287435  0.00202604  0.00242814  1
  V  V30  1  0.50105841  0.00391188  0.25699304  1
  V  V31  1  0.50020600  -0.00183439  0.74302836  1
  V  V32  1  0.48947027  0.22327789  -0.01109603  1
  V  V33  1  0.50368454  0.24842638  0.25193610  1
  V  V34  1  0.49800253  0.24505824  0.49868631  1
  V  V35  1  0.50021340  0.24689355  0.74658194  1
  V  V36  1  0.49007462  0.49863746  0.26741776  1
  V  V37  1  0.50130208  0.50060085  0.50240597  1
  V  V38  1  0.49289611  0.49303205  0.73202725  1
  V  V39  1  0.49783026  0.76210979  -0.00140301  1
  V  V40  1  0.50221779  0.75474327  0.25270365  1
  V  V41  1  0.50212711  0.75633904  0.50510771  1
  V  V42  1  0.49924062  0.75061118  0.74899362  1
  V  V43  1  0.74724183  -0.00397988  -0.00509225  1
  V  V44  1  0.74916917  0.01054331  0.25165665  1
  V  V45  1  0.74526182  0.00433738  0.50315896  1
  V  V46  1  0.74858619  -0.00126895  0.74938748  1
  V  V47  1  0.74891762  0.24755947  0.00215328  1
  V  V48  1  0.75135546  0.25134474  0.49713420  1
  V  V49  1  0.74277413  0.24300627  0.74045542  1
  V  V50  1  0.76322017  0.49707114  -0.01361938  1
  V  V51  1  0.75051806  0.49804824  0.50945866  1
  V  V52  1  0.75020232  0.49818240  0.74543885  1
  V  V53  1  0.74974120  0.75218287  -0.00314338  1
  V  V54  1  0.76186051  0.77504592  0.26725387  1
  V  V55  1  0.74930967  0.75106512  0.50297942  1
  V  V56  1  0.75053281  0.75182752  0.75067240  1
  Cr  Cr57  1  0.25033635  0.25106105  0.49881494  1
  Cr  Cr58  1  0.50278073  0.00314749  0.50171278  1
  Cr  Cr59  1  0.75166467  0.24471816  0.25321400  1
  W  W60  1  0.00426361  0.00478344  0.25256012  1
  W  W61  1  -0.00179006  0.24759207  -0.00152158  1
  W  W62  1  0.00422397  0.75241048  0.50464249  1
  W  W63  1  0.25451369  0.75571496  0.25489639  1
