# generated using pymatgen
data_ZrTiV56(Cr2W)2
_symmetry_space_group_name_H-M   'P 1'
_cell_length_a   10.38630814
_cell_length_b   10.41463445
_cell_length_c   10.36643399
_cell_angle_alpha   109.42016782
_cell_angle_beta   109.21390617
_cell_angle_gamma   109.52322377
_symmetry_Int_Tables_number   1
_chemical_formula_structural   ZrTiV56(Cr2W)2
_chemical_formula_sum   'Zr1 Ti1 V56 Cr4 W2'
_cell_volume   865.91796794
_cell_formula_units_Z   1
loop_
 _symmetry_equiv_pos_site_id
 _symmetry_equiv_pos_as_xyz
  1  'x, y, z'
loop_
 _atom_site_type_symbol
 _atom_site_label
 _atom_site_symmetry_multiplicity
 _atom_site_fract_x
 _atom_site_fract_y
 _atom_site_fract_z
 _atom_site_occupancy
  Zr  Zr0  1  0.50541362  0.00883503  0.75427176  1
  Ti  Ti1  1  -0.00336253  0.75024769  0.24150014  1
  V  V2  1  0.00489738  -0.00260671  0.00253461  1
  V  V3  1  0.00354799  0.00828595  0.25514325  1
  V  V4  1  0.00258222  0.00421641  0.50127400  1
  V  V5  1  -0.00081065  -0.00036715  0.75030287  1
  V  V6  1  0.00584038  0.25367609  0.00075332  1
  V  V7  1  0.00855824  0.25458240  0.25757989  1
  V  V8  1  -0.00517348  0.24964456  0.50059743  1
  V  V9  1  0.00802620  0.25349451  0.75198041  1
  V  V10  1  0.00167949  0.50450773  -0.00206421  1
  V  V11  1  -0.00306745  0.49262762  0.24733072  1
  V  V12  1  0.00192788  0.49789625  0.50321320  1
  V  V13  1  -0.00350369  0.49413970  0.74451277  1
  V  V14  1  -0.00600925  0.74724084  0.50220052  1
  V  V15  1  -0.00087772  0.74776763  0.75507782  1
  V  V16  1  0.25170681  0.00263636  0.00169817  1
  V  V17  1  0.24448217  -0.00271135  0.24577316  1
  V  V18  1  0.25189873  0.00649987  0.50024139  1
  V  V19  1  0.23603965  0.00643322  0.74948222  1
  V  V20  1  0.25027833  0.25237239  -0.00132039  1
  V  V21  1  0.25258002  0.24911429  0.25007265  1
  V  V22  1  0.24852824  0.25346889  0.50145327  1
  V  V23  1  0.24889526  0.50046009  -0.00065974  1
  V  V24  1  0.25056447  0.49439194  0.24820301  1
  V  V25  1  0.24762389  0.49409158  0.74694301  1
  V  V26  1  0.24400049  0.74688057  -0.00311287  1
  V  V27  1  0.25517228  0.74831665  0.24539633  1
  V  V28  1  0.24572385  0.74585364  0.75223551  1
  V  V29  1  0.49834293  -0.00199459  0.01388597  1
  V  V30  1  0.50363976  0.00410495  0.25364737  1
  V  V31  1  0.49769511  -0.00022150  0.48415782  1
  V  V32  1  0.50071359  0.25538428  0.00733010  1
  V  V33  1  0.49828013  0.25251813  0.25146535  1
  V  V34  1  0.50385763  0.25217917  0.49818160  1
  V  V35  1  0.49253748  0.26402365  0.74784383  1
  V  V36  1  0.49421570  0.49816034  -0.00211029  1
  V  V37  1  0.49881890  0.49812446  0.24980714  1
  V  V38  1  0.49546145  0.49598756  0.49743777  1
  V  V39  1  0.50104564  0.50014132  0.75015244  1
  V  V40  1  0.49727877  0.74553192  0.00079626  1
  V  V41  1  0.49842742  0.74633353  0.24686671  1
  V  V42  1  0.50220834  0.74596588  0.49557504  1
  V  V43  1  0.49385941  0.73164506  0.74554092  1
  V  V44  1  0.75307957  -0.00094894  0.25365764  1
  V  V45  1  0.75186846  0.00468590  0.50007737  1
  V  V46  1  0.76573805  0.00071707  0.74962873  1
  V  V47  1  0.76525037  0.26391944  0.01370835  1
  V  V48  1  0.75155408  0.25373493  0.26206315  1
  V  V49  1  0.75533843  0.25458819  0.74290350  1
  V  V50  1  0.74180370  0.49220311  -0.00752448  1
  V  V51  1  0.74933183  0.50278784  0.25220684  1
  V  V52  1  0.74935158  0.49536114  0.50089084  1
  V  V53  1  0.75426522  0.50491128  0.75317321  1
  V  V54  1  0.75476126  0.74775323  0.00169924  1
  V  V55  1  0.74403097  0.75055899  0.25192504  1
  V  V56  1  0.74870460  0.74680071  0.49835466  1
  V  V57  1  0.74836257  0.74444604  0.74436895  1
  Cr  Cr58  1  0.00005555  0.74875224  -0.00692600  1
  Cr  Cr59  1  0.24667798  0.25327154  0.74996161  1
  Cr  Cr60  1  0.24898045  0.49404201  0.49959983  1
  Cr  Cr61  1  0.75274040  0.25284441  0.50219607  1
  W  W62  1  0.24177694  0.74006364  0.49186436  1
  W  W63  1  0.75278292  -0.00037363  0.00297886  1
