# generated using pymatgen
data_ZrTiV55Cr5W2
_symmetry_space_group_name_H-M   'P 1'
_cell_length_a   10.39760599
_cell_length_b   10.41285920
_cell_length_c   10.39721224
_cell_angle_alpha   109.55711340
_cell_angle_beta   109.50973569
_cell_angle_gamma   109.60542692
_symmetry_Int_Tables_number   1
_chemical_formula_structural   ZrTiV55Cr5W2
_chemical_formula_sum   'Zr1 Ti1 V55 Cr5 W2'
_cell_volume   863.78219594
_cell_formula_units_Z   1
loop_
 _symmetry_equiv_pos_site_id
 _symmetry_equiv_pos_as_xyz
  1  'x, y, z'
loop_
 _atom_site_type_symbol
 _atom_site_label
 _atom_site_symmetry_multiplicity
 _atom_site_fract_x
 _atom_site_fract_y
 _atom_site_fract_z
 _atom_site_occupancy
  Zr  Zr0  1  0.75575555  0.25403313  0.74972369  1
  Ti  Ti1  1  0.24820785  0.50384291  0.74636003  1
  V  V2  1  0.00630952  0.00188269  0.00239446  1
  V  V3  1  -0.00711066  -0.00802664  0.24243655  1
  V  V4  1  -0.00222909  -0.00629502  0.49617460  1
  V  V5  1  -0.00127736  -0.00239294  0.74834157  1
  V  V6  1  0.00369435  0.24901630  0.00323962  1
  V  V7  1  0.00313991  0.25585472  0.25169069  1
  V  V8  1  -0.00722398  0.24138235  0.49182331  1
  V  V9  1  0.01934977  0.25327316  0.75318868  1
  V  V10  1  0.01415800  0.51337961  0.02163826  1
  V  V11  1  0.00468925  0.50254437  0.49716009  1
  V  V12  1  -0.00216996  0.50669979  0.75160359  1
  V  V13  1  -0.00420968  0.75107298  0.00243019  1
  V  V14  1  0.00022833  0.74747592  0.25242813  1
  V  V15  1  -0.00286954  0.75037212  0.49954586  1
  V  V16  1  0.00538242  0.75546081  0.75435690  1
  V  V17  1  0.24736533  -0.00138104  0.24273295  1
  V  V18  1  0.24313606  -0.00480124  0.49551986  1
  V  V19  1  0.24681773  -0.00284652  0.75359842  1
  V  V20  1  0.25107184  0.24617218  0.00330890  1
  V  V21  1  0.24985481  0.24929678  0.24712345  1
  V  V22  1  0.25442914  0.25010498  0.75603038  1
  V  V23  1  0.26071004  0.50307785  0.00776776  1
  V  V24  1  0.24868715  0.49901688  0.25550315  1
  V  V25  1  0.25033117  0.75349611  -0.00134814  1
  V  V26  1  0.24927258  0.74956619  0.24788340  1
  V  V27  1  0.24232591  0.74034004  0.49481512  1
  V  V28  1  0.24670750  0.75354456  0.75084579  1
  V  V29  1  0.49494659  -0.00161662  0.00128274  1
  V  V30  1  0.49888470  -0.00256964  0.24748185  1
  V  V31  1  0.48421457  -0.01471718  0.48579008  1
  V  V32  1  0.50254100  0.25841536  0.00527608  1
  V  V33  1  0.49425409  0.24690857  0.24394302  1
  V  V34  1  0.49758933  0.25065611  0.49515278  1
  V  V35  1  0.49004799  0.24809056  0.75139303  1
  V  V36  1  0.50115920  0.50055488  0.24630419  1
  V  V37  1  0.49603750  0.50146922  0.49636959  1
  V  V38  1  0.51071578  0.50779053  0.76144020  1
  V  V39  1  0.50858809  0.75077511  0.00561073  1
  V  V40  1  0.50002433  0.74849504  0.24969823  1
  V  V41  1  0.50114893  0.74623167  0.49638757  1
  V  V42  1  0.49269523  0.74341875  0.74562243  1
  V  V43  1  0.75089766  -0.00693786  0.00295691  1
  V  V44  1  0.74941807  -0.00127263  0.24820014  1
  V  V45  1  0.74964260  -0.00737644  0.49355346  1
  V  V46  1  0.75095995  -0.01285424  0.75185611  1
  V  V47  1  0.75740512  0.25669780  0.01774180  1
  V  V48  1  0.74757814  0.24896505  0.24813809  1
  V  V49  1  0.74946783  0.25391902  0.48321196  1
  V  V50  1  0.74607885  0.50834816  0.00547051  1
  V  V51  1  0.75481905  0.50206679  0.25388748  1
  V  V52  1  0.74891237  0.50334920  0.49655851  1
  V  V53  1  0.75042868  0.51408767  0.74723440  1
  V  V54  1  0.74715963  0.74592532  0.24492035  1
  V  V55  1  0.74937624  0.74687348  0.49721890  1
  V  V56  1  0.75028613  0.75050959  0.75352864  1
  Cr  Cr57  1  -0.00046228  0.50184888  0.25184383  1
  Cr  Cr58  1  0.24976306  0.00037562  0.00117412  1
  Cr  Cr59  1  0.25050227  0.50110022  0.49592653  1
  Cr  Cr60  1  0.50106050  0.50214056  0.00416372  1
  Cr  Cr61  1  0.75148496  0.75268643  0.00261471  1
  W  W62  1  0.24875801  0.25211724  0.49804261  1
  W  W63  1  0.49908189  -0.00163527  0.75168744  1
