# generated using pymatgen
data_Zr2Ti2V51(Cr2W)3
_symmetry_space_group_name_H-M   'P 1'
_cell_length_a   10.47273368
_cell_length_b   10.39445130
_cell_length_c   10.44271648
_cell_angle_alpha   109.23852864
_cell_angle_beta   109.60184311
_cell_angle_gamma   109.23807509
_symmetry_Int_Tables_number   1
_chemical_formula_structural   Zr2Ti2V51(Cr2W)3
_chemical_formula_sum   'Zr2 Ti2 V51 Cr6 W3'
_cell_volume   878.68375897
_cell_formula_units_Z   1
loop_
 _symmetry_equiv_pos_site_id
 _symmetry_equiv_pos_as_xyz
  1  'x, y, z'
loop_
 _atom_site_type_symbol
 _atom_site_label
 _atom_site_symmetry_multiplicity
 _atom_site_fract_x
 _atom_site_fract_y
 _atom_site_fract_z
 _atom_site_occupancy
  Zr  Zr0  1  0.00704891  -0.00211508  0.24871095  1
  Zr  Zr1  1  0.24263621  0.74468688  0.24457551  1
  Ti  Ti2  1  -0.00016598  0.74815981  -0.00538668  1
  Ti  Ti3  1  0.25080551  0.00112155  0.50285930  1
  V  V4  1  -0.01046050  -0.00158366  -0.02108620  1
  V  V5  1  -0.01489708  -0.00186492  0.50994538  1
  V  V6  1  -0.00105013  -0.00158719  0.75075564  1
  V  V7  1  0.00182911  0.25141610  0.00198360  1
  V  V8  1  -0.00367652  0.25848340  0.25079103  1
  V  V9  1  -0.00124303  0.25561031  0.50104612  1
  V  V10  1  -0.00523182  0.24709936  0.74652930  1
  V  V11  1  -0.01279600  0.47694422  -0.01680223  1
  V  V12  1  -0.00133434  0.49058291  0.25020940  1
  V  V13  1  0.00009064  0.50018805  0.50485018  1
  V  V14  1  -0.00203150  0.49848016  0.74796558  1
  V  V15  1  -0.03155528  0.71737905  0.25187594  1
  V  V16  1  -0.00263384  0.74701078  0.50570822  1
  V  V17  1  -0.00405626  0.74640999  0.74207438  1
  V  V18  1  0.25129405  0.00290308  0.00268629  1
  V  V19  1  0.25236475  -0.00487629  0.75757911  1
  V  V20  1  0.25017473  0.24911321  -0.00058901  1
  V  V21  1  0.25523804  0.25938903  0.24999229  1
  V  V22  1  0.26765409  0.27768271  0.51521406  1
  V  V23  1  0.24934751  0.49721416  0.00104388  1
  V  V24  1  0.25105118  0.50184851  0.49698469  1
  V  V25  1  0.25093323  0.50662244  0.74820500  1
  V  V26  1  0.25626723  0.74813170  -0.02109073  1
  V  V27  1  0.25381525  0.74627638  0.52103272  1
  V  V28  1  0.50192666  -0.00034837  -0.00282031  1
  V  V29  1  0.50104050  0.00531623  0.24764376  1
  V  V30  1  0.50305910  0.00065450  0.75395981  1
  V  V31  1  0.50097503  0.24779505  0.00163215  1
  V  V32  1  0.50953999  0.25981529  0.25177482  1
  V  V33  1  0.50177518  0.25293982  0.49733060  1
  V  V34  1  0.50650894  0.25703755  0.75486078  1
  V  V35  1  0.49724428  0.50060934  0.25422271  1
  V  V36  1  0.50906111  0.50915195  0.50829825  1
  V  V37  1  0.50191838  0.75407649  0.00062483  1
  V  V38  1  0.51477149  0.75470560  0.25706668  1
  V  V39  1  0.49904255  0.74561026  0.50031143  1
  V  V40  1  0.50186799  0.74912150  0.74928972  1
  V  V41  1  0.74740639  0.00137353  -0.00176364  1
  V  V42  1  0.74461323  0.00495572  0.25492619  1
  V  V43  1  0.74957046  -0.00581391  0.74902592  1
  V  V44  1  0.74519702  0.24319953  -0.00223367  1
  V  V45  1  0.75080205  0.25062723  0.25127945  1
  V  V46  1  0.75608208  0.25500641  0.50239850  1
  V  V47  1  0.75252782  0.25160574  0.75240905  1
  V  V48  1  0.74665839  0.49441378  -0.00473587  1
  V  V49  1  0.74452288  0.49449586  0.25343314  1
  V  V50  1  0.75076502  0.49918726  0.49989303  1
  V  V51  1  0.74366498  0.50000317  0.74152358  1
  V  V52  1  0.73077700  0.73831283  -0.02432864  1
  V  V53  1  0.74470966  0.74847414  0.25279710  1
  V  V54  1  0.74702642  0.74931182  0.50713586  1
  Cr  Cr55  1  0.27785399  0.02492743  0.24974040  1
  Cr  Cr56  1  0.25484876  0.49244509  0.25294307  1
  Cr  Cr57  1  0.25210910  0.74930306  0.75059145  1
  Cr  Cr58  1  0.50052834  0.50314699  0.74701280  1
  Cr  Cr59  1  0.75182808  0.00159182  0.50275925  1
  Cr  Cr60  1  0.74814037  0.74937011  0.74563063  1
  W  W61  1  0.24747772  0.24871975  0.74859338  1
  W  W62  1  0.51475170  0.00658962  0.50891159  1
  W  W63  1  0.49998917  0.50154115  0.00019852  1
