# generated using pymatgen
data_Ti41V43Cr41
_symmetry_space_group_name_H-M   'P 1'
_cell_length_a   13.03368233
_cell_length_b   13.03368233
_cell_length_c   13.03368233
_cell_angle_alpha   109.47122063
_cell_angle_beta   109.47122063
_cell_angle_gamma   109.47122063
_symmetry_Int_Tables_number   1
_chemical_formula_structural   Ti41V43Cr41
_chemical_formula_sum   'Ti41 V43 Cr41'
_cell_volume   1704.43131250
_cell_formula_units_Z   1
loop_
 _symmetry_equiv_pos_site_id
 _symmetry_equiv_pos_as_xyz
  1  'x, y, z'
loop_
 _atom_site_type_symbol
 _atom_site_label
 _atom_site_symmetry_multiplicity
 _atom_site_fract_x
 _atom_site_fract_y
 _atom_site_fract_z
 _atom_site_occupancy
  Ti  Ti0  1  0.00000000  0.00000000  0.00000000  1
  Ti  Ti1  1  0.00000000  0.00000000  0.20000000  1
  V  V2  1  0.00000000  0.00000000  0.40000000  1
  V  V3  1  0.00000000  0.00000000  0.60000000  1
  Cr  Cr4  1  0.00000000  0.00000000  0.80000000  1
  Cr  Cr5  1  0.00000000  0.20000000  0.00000000  1
  V  V6  1  0.00000000  0.20000000  0.20000000  1
  Ti  Ti7  1  0.00000000  0.20000000  0.40000000  1
  V  V8  1  0.00000000  0.20000000  0.60000000  1
  Ti  Ti9  1  0.00000000  0.20000000  0.80000000  1
  V  V10  1  0.00000000  0.40000000  0.00000000  1
  Ti  Ti11  1  0.00000000  0.40000000  0.20000000  1
  Cr  Cr12  1  0.00000000  0.40000000  0.40000000  1
  Ti  Ti13  1  0.00000000  0.40000000  0.60000000  1
  Cr  Cr14  1  0.00000000  0.40000000  0.80000000  1
  Cr  Cr15  1  0.00000000  0.60000000  0.00000000  1
  Ti  Ti16  1  0.00000000  0.60000000  0.20000000  1
  Ti  Ti17  1  0.00000000  0.60000000  0.40000000  1
  V  V18  1  0.00000000  0.60000000  0.60000000  1
  V  V19  1  0.00000000  0.60000000  0.80000000  1
  Ti  Ti20  1  0.00000000  0.80000000  0.00000000  1
  Cr  Cr21  1  0.00000000  0.80000000  0.20000000  1
  V  V22  1  0.00000000  0.80000000  0.40000000  1
  Ti  Ti23  1  0.00000000  0.80000000  0.60000000  1
  V  V24  1  0.00000000  0.80000000  0.80000000  1
  Cr  Cr25  1  0.20000000  0.00000000  0.00000000  1
  V  V26  1  0.20000000  0.00000000  0.20000000  1
  Ti  Ti27  1  0.20000000  0.00000000  0.40000000  1
  Cr  Cr28  1  0.20000000  0.00000000  0.60000000  1
  Ti  Ti29  1  0.20000000  0.00000000  0.80000000  1
  V  V30  1  0.20000000  0.20000000  0.00000000  1
  Ti  Ti31  1  0.20000000  0.20000000  0.20000000  1
  V  V32  1  0.20000000  0.20000000  0.40000000  1
  Ti  Ti33  1  0.20000000  0.20000000  0.60000000  1
  Cr  Cr34  1  0.20000000  0.20000000  0.80000000  1
  Cr  Cr35  1  0.20000000  0.40000000  0.00000000  1
  Ti  Ti36  1  0.20000000  0.40000000  0.20000000  1
  Ti  Ti37  1  0.20000000  0.40000000  0.40000000  1
  V  V38  1  0.20000000  0.40000000  0.60000000  1
  V  V39  1  0.20000000  0.40000000  0.80000000  1
  Ti  Ti40  1  0.20000000  0.60000000  0.00000000  1
  Cr  Cr41  1  0.20000000  0.60000000  0.20000000  1
  V  V42  1  0.20000000  0.60000000  0.40000000  1
  Ti  Ti43  1  0.20000000  0.60000000  0.60000000  1
  Cr  Cr44  1  0.20000000  0.60000000  0.80000000  1
  Cr  Cr45  1  0.20000000  0.80000000  0.00000000  1
  V  V46  1  0.20000000  0.80000000  0.20000000  1
  Cr  Cr47  1  0.20000000  0.80000000  0.40000000  1
  V  V48  1  0.20000000  0.80000000  0.60000000  1
  Cr  Cr49  1  0.20000000  0.80000000  0.80000000  1
  V  V50  1  0.40000000  0.00000000  0.00000000  1
  Cr  Cr51  1  0.40000000  0.00000000  0.20000000  1
  Cr  Cr52  1  0.40000000  0.00000000  0.40000000  1
  V  V53  1  0.40000000  0.00000000  0.60000000  1
  Ti  Ti54  1  0.40000000  0.00000000  0.80000000  1
  Cr  Cr55  1  0.40000000  0.20000000  0.00000000  1
  Ti  Ti56  1  0.40000000  0.20000000  0.20000000  1
  Cr  Cr57  1  0.40000000  0.20000000  0.40000000  1
  V  V58  1  0.40000000  0.20000000  0.60000000  1
  V  V59  1  0.40000000  0.20000000  0.80000000  1
  Ti  Ti60  1  0.40000000  0.40000000  0.00000000  1
  Cr  Cr61  1  0.40000000  0.40000000  0.20000000  1
  V  V62  1  0.40000000  0.40000000  0.40000000  1
  Ti  Ti63  1  0.40000000  0.40000000  0.60000000  1
  Cr  Cr64  1  0.40000000  0.40000000  0.80000000  1
  Cr  Cr65  1  0.40000000  0.60000000  0.00000000  1
  V  V66  1  0.40000000  0.60000000  0.20000000  1
  Ti  Ti67  1  0.40000000  0.60000000  0.40000000  1
  V  V68  1  0.40000000  0.60000000  0.60000000  1
  Ti  Ti69  1  0.40000000  0.60000000  0.80000000  1
  V  V70  1  0.40000000  0.80000000  0.00000000  1
  Cr  Cr71  1  0.40000000  0.80000000  0.20000000  1
  Ti  Ti72  1  0.40000000  0.80000000  0.40000000  1
  Ti  Ti73  1  0.40000000  0.80000000  0.60000000  1
  V  V74  1  0.40000000  0.80000000  0.80000000  1
  V  V75  1  0.60000000  0.00000000  0.00000000  1
  Cr  Cr76  1  0.60000000  0.00000000  0.20000000  1
  V  V77  1  0.60000000  0.00000000  0.40000000  1
  Cr  Cr78  1  0.60000000  0.00000000  0.60000000  1
  Cr  Cr79  1  0.60000000  0.00000000  0.80000000  1
  Cr  Cr80  1  0.60000000  0.20000000  0.00000000  1
  Cr  Cr81  1  0.60000000  0.20000000  0.20000000  1
  V  V82  1  0.60000000  0.20000000  0.40000000  1
  Cr  Cr83  1  0.60000000  0.20000000  0.60000000  1
  V  V84  1  0.60000000  0.20000000  0.80000000  1
  Ti  Ti85  1  0.60000000  0.40000000  0.00000000  1
  V  V86  1  0.60000000  0.40000000  0.20000000  1
  Cr  Cr87  1  0.60000000  0.40000000  0.40000000  1
  V  V88  1  0.60000000  0.40000000  0.60000000  1
  Ti  Ti89  1  0.60000000  0.40000000  0.80000000  1
  V  V90  1  0.60000000  0.60000000  0.00000000  1
  Cr  Cr91  1  0.60000000  0.60000000  0.20000000  1
  Ti  Ti92  1  0.60000000  0.60000000  0.40000000  1
  Ti  Ti93  1  0.60000000  0.60000000  0.60000000  1
  Cr  Cr94  1  0.60000000  0.60000000  0.80000000  1
  Cr  Cr95  1  0.60000000  0.80000000  0.00000000  1
  Ti  Ti96  1  0.60000000  0.80000000  0.20000000  1
  Cr  Cr97  1  0.60000000  0.80000000  0.40000000  1
  V  V98  1  0.60000000  0.80000000  0.60000000  1
  Ti  Ti99  1  0.60000000  0.80000000  0.80000000  1
  Ti  Ti100  1  0.80000000  0.00000000  0.00000000  1
  V  V101  1  0.80000000  0.00000000  0.20000000  1
  Cr  Cr102  1  0.80000000  0.00000000  0.40000000  1
  Cr  Cr103  1  0.80000000  0.00000000  0.60000000  1
  V  V104  1  0.80000000  0.00000000  0.80000000  1
  Ti  Ti105  1  0.80000000  0.20000000  0.00000000  1
  Ti  Ti106  1  0.80000000  0.20000000  0.20000000  1
  V  V107  1  0.80000000  0.20000000  0.40000000  1
  V  V108  1  0.80000000  0.20000000  0.60000000  1
  Cr  Cr109  1  0.80000000  0.20000000  0.80000000  1
  Cr  Cr110  1  0.80000000  0.40000000  0.00000000  1
  V  V111  1  0.80000000  0.40000000  0.20000000  1
  Ti  Ti112  1  0.80000000  0.40000000  0.40000000  1
  Cr  Cr113  1  0.80000000  0.40000000  0.60000000  1
  Ti  Ti114  1  0.80000000  0.40000000  0.80000000  1
  V  V115  1  0.80000000  0.60000000  0.00000000  1
  Ti  Ti116  1  0.80000000  0.60000000  0.20000000  1
  Cr  Cr117  1  0.80000000  0.60000000  0.40000000  1
  V  V118  1  0.80000000  0.60000000  0.60000000  1
  Ti  Ti119  1  0.80000000  0.60000000  0.80000000  1
  V  V120  1  0.80000000  0.80000000  0.00000000  1
  Ti  Ti121  1  0.80000000  0.80000000  0.20000000  1
  V  V122  1  0.80000000  0.80000000  0.40000000  1
  Ti  Ti123  1  0.80000000  0.80000000  0.60000000  1
  Cr  Cr124  1  0.80000000  0.80000000  0.80000000  1
