# generated using pymatgen
data_Ti23V79Cr23
_symmetry_space_group_name_H-M   'P 1'
_cell_length_a   13.03368233
_cell_length_b   13.03368233
_cell_length_c   13.03368233
_cell_angle_alpha   109.47122063
_cell_angle_beta   109.47122063
_cell_angle_gamma   109.47122063
_symmetry_Int_Tables_number   1
_chemical_formula_structural   Ti23V79Cr23
_chemical_formula_sum   'Ti23 V79 Cr23'
_cell_volume   1704.43131250
_cell_formula_units_Z   1
loop_
 _symmetry_equiv_pos_site_id
 _symmetry_equiv_pos_as_xyz
  1  'x, y, z'
loop_
 _atom_site_type_symbol
 _atom_site_label
 _atom_site_symmetry_multiplicity
 _atom_site_fract_x
 _atom_site_fract_y
 _atom_site_fract_z
 _atom_site_occupancy
  V  V0  1  0.00000000  0.00000000  0.00000000  1
  Ti  Ti1  1  0.00000000  0.00000000  0.20000000  1
  V  V2  1  0.00000000  0.00000000  0.40000000  1
  Cr  Cr3  1  0.00000000  0.00000000  0.60000000  1
  Cr  Cr4  1  0.00000000  0.00000000  0.80000000  1
  Ti  Ti5  1  0.00000000  0.20000000  0.00000000  1
  V  V6  1  0.00000000  0.20000000  0.20000000  1
  Ti  Ti7  1  0.00000000  0.20000000  0.40000000  1
  V  V8  1  0.00000000  0.20000000  0.60000000  1
  V  V9  1  0.00000000  0.20000000  0.80000000  1
  V  V10  1  0.00000000  0.40000000  0.00000000  1
  Ti  Ti11  1  0.00000000  0.40000000  0.20000000  1
  V  V12  1  0.00000000  0.40000000  0.40000000  1
  Cr  Cr13  1  0.00000000  0.40000000  0.60000000  1
  V  V14  1  0.00000000  0.40000000  0.80000000  1
  Cr  Cr15  1  0.00000000  0.60000000  0.00000000  1
  V  V16  1  0.00000000  0.60000000  0.20000000  1
  Cr  Cr17  1  0.00000000  0.60000000  0.40000000  1
  V  V18  1  0.00000000  0.60000000  0.60000000  1
  V  V19  1  0.00000000  0.60000000  0.80000000  1
  V  V20  1  0.00000000  0.80000000  0.00000000  1
  V  V21  1  0.00000000  0.80000000  0.20000000  1
  Cr  Cr22  1  0.00000000  0.80000000  0.40000000  1
  V  V23  1  0.00000000  0.80000000  0.60000000  1
  V  V24  1  0.00000000  0.80000000  0.80000000  1
  Cr  Cr25  1  0.20000000  0.00000000  0.00000000  1
  V  V26  1  0.20000000  0.00000000  0.20000000  1
  Ti  Ti27  1  0.20000000  0.00000000  0.40000000  1
  V  V28  1  0.20000000  0.00000000  0.60000000  1
  V  V29  1  0.20000000  0.00000000  0.80000000  1
  V  V30  1  0.20000000  0.20000000  0.00000000  1
  Ti  Ti31  1  0.20000000  0.20000000  0.20000000  1
  V  V32  1  0.20000000  0.20000000  0.40000000  1
  Ti  Ti33  1  0.20000000  0.20000000  0.60000000  1
  V  V34  1  0.20000000  0.20000000  0.80000000  1
  Cr  Cr35  1  0.20000000  0.40000000  0.00000000  1
  V  V36  1  0.20000000  0.40000000  0.20000000  1
  Ti  Ti37  1  0.20000000  0.40000000  0.40000000  1
  V  V38  1  0.20000000  0.40000000  0.60000000  1
  Cr  Cr39  1  0.20000000  0.40000000  0.80000000  1
  V  V40  1  0.20000000  0.60000000  0.00000000  1
  Cr  Cr41  1  0.20000000  0.60000000  0.20000000  1
  V  V42  1  0.20000000  0.60000000  0.40000000  1
  Ti  Ti43  1  0.20000000  0.60000000  0.60000000  1
  V  V44  1  0.20000000  0.60000000  0.80000000  1
  V  V45  1  0.20000000  0.80000000  0.00000000  1
  V  V46  1  0.20000000  0.80000000  0.20000000  1
  V  V47  1  0.20000000  0.80000000  0.40000000  1
  V  V48  1  0.20000000  0.80000000  0.60000000  1
  V  V49  1  0.20000000  0.80000000  0.80000000  1
  Cr  Cr50  1  0.40000000  0.00000000  0.00000000  1
  V  V51  1  0.40000000  0.00000000  0.20000000  1
  V  V52  1  0.40000000  0.00000000  0.40000000  1
  Ti  Ti53  1  0.40000000  0.00000000  0.60000000  1
  V  V54  1  0.40000000  0.00000000  0.80000000  1
  V  V55  1  0.40000000  0.20000000  0.00000000  1
  V  V56  1  0.40000000  0.20000000  0.20000000  1
  Ti  Ti57  1  0.40000000  0.20000000  0.40000000  1
  V  V58  1  0.40000000  0.20000000  0.60000000  1
  Ti  Ti59  1  0.40000000  0.20000000  0.80000000  1
  Cr  Cr60  1  0.40000000  0.40000000  0.00000000  1
  Cr  Cr61  1  0.40000000  0.40000000  0.20000000  1
  V  V62  1  0.40000000  0.40000000  0.40000000  1
  Ti  Ti63  1  0.40000000  0.40000000  0.60000000  1
  V  V64  1  0.40000000  0.40000000  0.80000000  1
  V  V65  1  0.40000000  0.60000000  0.00000000  1
  V  V66  1  0.40000000  0.60000000  0.20000000  1
  Cr  Cr67  1  0.40000000  0.60000000  0.40000000  1
  V  V68  1  0.40000000  0.60000000  0.60000000  1
  Cr  Cr69  1  0.40000000  0.60000000  0.80000000  1
  V  V70  1  0.40000000  0.80000000  0.00000000  1
  V  V71  1  0.40000000  0.80000000  0.20000000  1
  V  V72  1  0.40000000  0.80000000  0.40000000  1
  V  V73  1  0.40000000  0.80000000  0.60000000  1
  Cr  Cr74  1  0.40000000  0.80000000  0.80000000  1
  V  V75  1  0.60000000  0.00000000  0.00000000  1
  Cr  Cr76  1  0.60000000  0.00000000  0.20000000  1
  V  V77  1  0.60000000  0.00000000  0.40000000  1
  V  V78  1  0.60000000  0.00000000  0.60000000  1
  Ti  Ti79  1  0.60000000  0.00000000  0.80000000  1
  Ti  Ti80  1  0.60000000  0.20000000  0.00000000  1
  V  V81  1  0.60000000  0.20000000  0.20000000  1
  Cr  Cr82  1  0.60000000  0.20000000  0.40000000  1
  Ti  Ti83  1  0.60000000  0.20000000  0.60000000  1
  V  V84  1  0.60000000  0.20000000  0.80000000  1
  V  V85  1  0.60000000  0.40000000  0.00000000  1
  Cr  Cr86  1  0.60000000  0.40000000  0.20000000  1
  V  V87  1  0.60000000  0.40000000  0.40000000  1
  V  V88  1  0.60000000  0.40000000  0.60000000  1
  Ti  Ti89  1  0.60000000  0.40000000  0.80000000  1
  Cr  Cr90  1  0.60000000  0.60000000  0.00000000  1
  V  V91  1  0.60000000  0.60000000  0.20000000  1
  V  V92  1  0.60000000  0.60000000  0.40000000  1
  V  V93  1  0.60000000  0.60000000  0.60000000  1
  V  V94  1  0.60000000  0.60000000  0.80000000  1
  V  V95  1  0.60000000  0.80000000  0.00000000  1
  V  V96  1  0.60000000  0.80000000  0.20000000  1
  V  V97  1  0.60000000  0.80000000  0.40000000  1
  V  V98  1  0.60000000  0.80000000  0.60000000  1
  V  V99  1  0.60000000  0.80000000  0.80000000  1
  Ti  Ti100  1  0.80000000  0.00000000  0.00000000  1
  V  V101  1  0.80000000  0.00000000  0.20000000  1
  Ti  Ti102  1  0.80000000  0.00000000  0.40000000  1
  V  V103  1  0.80000000  0.00000000  0.60000000  1
  V  V104  1  0.80000000  0.00000000  0.80000000  1
  V  V105  1  0.80000000  0.20000000  0.00000000  1
  Ti  Ti106  1  0.80000000  0.20000000  0.20000000  1
  V  V107  1  0.80000000  0.20000000  0.40000000  1
  Cr  Cr108  1  0.80000000  0.20000000  0.60000000  1
  Ti  Ti109  1  0.80000000  0.20000000  0.80000000  1
  Ti  Ti110  1  0.80000000  0.40000000  0.00000000  1
  V  V111  1  0.80000000  0.40000000  0.20000000  1
  Ti  Ti112  1  0.80000000  0.40000000  0.40000000  1
  V  V113  1  0.80000000  0.40000000  0.60000000  1
  V  V114  1  0.80000000  0.40000000  0.80000000  1
  V  V115  1  0.80000000  0.60000000  0.00000000  1
  Cr  Cr116  1  0.80000000  0.60000000  0.20000000  1
  V  V117  1  0.80000000  0.60000000  0.40000000  1
  V  V118  1  0.80000000  0.60000000  0.60000000  1
  V  V119  1  0.80000000  0.60000000  0.80000000  1
  V  V120  1  0.80000000  0.80000000  0.00000000  1
  Cr  Cr121  1  0.80000000  0.80000000  0.20000000  1
  V  V122  1  0.80000000  0.80000000  0.40000000  1
  V  V123  1  0.80000000  0.80000000  0.60000000  1
  V  V124  1  0.80000000  0.80000000  0.80000000  1
