# generated using pymatgen
data_Zr7Ti4V39(CrW)7
_symmetry_space_group_name_H-M   'P 1'
_cell_length_a   10.42694588
_cell_length_b   10.42694588
_cell_length_c   10.42694588
_cell_angle_alpha   109.47122063
_cell_angle_beta   109.47122063
_cell_angle_gamma   109.47122063
_symmetry_Int_Tables_number   1
_chemical_formula_structural   Zr7Ti4V39(CrW)7
_chemical_formula_sum   'Zr7 Ti4 V39 Cr7 W7'
_cell_volume   872.66883677
_cell_formula_units_Z   1
loop_
 _symmetry_equiv_pos_site_id
 _symmetry_equiv_pos_as_xyz
  1  'x, y, z'
loop_
 _atom_site_type_symbol
 _atom_site_label
 _atom_site_symmetry_multiplicity
 _atom_site_fract_x
 _atom_site_fract_y
 _atom_site_fract_z
 _atom_site_occupancy
  V  V0  1  0.00000000  0.00000000  0.00000000  1
  V  V1  1  0.00000000  0.00000000  0.25000000  1
  Zr  Zr2  1  0.00000000  0.00000000  0.50000000  1
  Zr  Zr3  1  0.00000000  0.00000000  0.75000000  1
  Zr  Zr4  1  0.00000000  0.25000000  0.00000000  1
  Cr  Cr5  1  0.00000000  0.25000000  0.25000000  1
  V  V6  1  0.00000000  0.25000000  0.50000000  1
  Zr  Zr7  1  0.00000000  0.25000000  0.75000000  1
  Ti  Ti8  1  0.00000000  0.50000000  0.00000000  1
  V  V9  1  0.00000000  0.50000000  0.25000000  1
  V  V10  1  0.00000000  0.50000000  0.50000000  1
  V  V11  1  0.00000000  0.50000000  0.75000000  1
  V  V12  1  0.00000000  0.75000000  0.00000000  1
  V  V13  1  0.00000000  0.75000000  0.25000000  1
  V  V14  1  0.00000000  0.75000000  0.50000000  1
  V  V15  1  0.00000000  0.75000000  0.75000000  1
  V  V16  1  0.25000000  0.00000000  0.00000000  1
  V  V17  1  0.25000000  0.00000000  0.25000000  1
  V  V18  1  0.25000000  0.00000000  0.50000000  1
  V  V19  1  0.25000000  0.00000000  0.75000000  1
  Zr  Zr20  1  0.25000000  0.25000000  0.00000000  1
  Ti  Ti21  1  0.25000000  0.25000000  0.25000000  1
  W  W22  1  0.25000000  0.25000000  0.50000000  1
  Zr  Zr23  1  0.25000000  0.25000000  0.75000000  1
  Zr  Zr24  1  0.25000000  0.50000000  0.00000000  1
  Cr  Cr25  1  0.25000000  0.50000000  0.25000000  1
  V  V26  1  0.25000000  0.50000000  0.50000000  1
  V  V27  1  0.25000000  0.50000000  0.75000000  1
  W  W28  1  0.25000000  0.75000000  1.00000000  1
  V  V29  1  0.25000000  0.75000000  0.25000000  1
  Cr  Cr30  1  0.25000000  0.75000000  0.50000000  1
  V  V31  1  0.25000000  0.75000000  0.75000000  1
  V  V32  1  0.50000000  0.00000000  0.00000000  1
  V  V33  1  0.50000000  0.00000000  0.25000000  1
  V  V34  1  0.50000000  0.00000000  0.50000000  1
  Cr  Cr35  1  0.50000000  0.00000000  0.75000000  1
  V  V36  1  0.50000000  0.25000000  0.00000000  1
  Cr  Cr37  1  0.50000000  0.25000000  0.25000000  1
  W  W38  1  0.50000000  0.25000000  0.50000000  1
  V  V39  1  0.50000000  0.25000000  0.75000000  1
  V  V40  1  0.50000000  0.50000000  0.00000000  1
  V  V41  1  0.50000000  0.50000000  0.25000000  1
  V  V42  1  0.50000000  0.50000000  0.50000000  1
  V  V43  1  0.50000000  0.50000000  0.75000000  1
  W  W44  1  0.50000000  0.75000000  0.00000000  1
  W  W45  1  0.50000000  0.75000000  0.25000000  1
  W  W46  1  0.50000000  0.75000000  0.50000000  1
  V  V47  1  0.50000000  0.75000000  0.75000000  1
  V  V48  1  0.75000000  0.00000000  0.00000000  1
  Ti  Ti49  1  0.75000000  0.00000000  0.25000000  1
  V  V50  1  0.75000000  0.00000000  0.50000000  1
  Ti  Ti51  1  0.75000000  0.00000000  0.75000000  1
  V  V52  1  0.75000000  0.25000000  0.00000000  1
  W  W53  1  0.75000000  0.25000000  0.25000000  1
  V  V54  1  0.75000000  0.25000000  0.50000000  1
  V  V55  1  0.75000000  0.25000000  0.75000000  1
  V  V56  1  0.75000000  0.50000000  0.00000000  1
  V  V57  1  0.75000000  0.50000000  0.25000000  1
  V  V58  1  0.75000000  0.50000000  0.50000000  1
  V  V59  1  0.75000000  0.50000000  0.75000000  1
  V  V60  1  0.75000000  0.75000000  0.00000000  1
  Cr  Cr61  1  0.75000000  0.75000000  0.25000000  1
  Cr  Cr62  1  0.75000000  0.75000000  0.50000000  1
  V  V63  1  0.75000000  0.75000000  0.75000000  1
