# generated using pymatgen
data_Zr7Ti4V39(CrW)7
_symmetry_space_group_name_H-M   'P 1'
_cell_length_a   10.42694588
_cell_length_b   10.42694588
_cell_length_c   10.42694588
_cell_angle_alpha   109.47122063
_cell_angle_beta   109.47122063
_cell_angle_gamma   109.47122063
_symmetry_Int_Tables_number   1
_chemical_formula_structural   Zr7Ti4V39(CrW)7
_chemical_formula_sum   'Zr7 Ti4 V39 Cr7 W7'
_cell_volume   872.66883677
_cell_formula_units_Z   1
loop_
 _symmetry_equiv_pos_site_id
 _symmetry_equiv_pos_as_xyz
  1  'x, y, z'
loop_
 _atom_site_type_symbol
 _atom_site_label
 _atom_site_symmetry_multiplicity
 _atom_site_fract_x
 _atom_site_fract_y
 _atom_site_fract_z
 _atom_site_occupancy
  W  W0  1  0.00000000  0.00000000  0.00000000  1
  V  V1  1  0.00000000  0.00000000  0.25000000  1
  V  V2  1  0.00000000  0.00000000  0.50000000  1
  Ti  Ti3  1  0.00000000  0.00000000  0.75000000  1
  V  V4  1  0.00000000  0.25000000  0.00000000  1
  V  V5  1  0.00000000  0.25000000  0.25000000  1
  Cr  Cr6  1  0.00000000  0.25000000  0.50000000  1
  Zr  Zr7  1  0.00000000  0.25000000  0.75000000  1
  V  V8  1  0.00000000  0.50000000  0.00000000  1
  V  V9  1  0.00000000  0.50000000  0.25000000  1
  Cr  Cr10  1  0.00000000  0.50000000  0.50000000  1
  Cr  Cr11  1  0.00000000  0.50000000  0.75000000  1
  V  V12  1  0.00000000  0.75000000  0.00000000  1
  V  V13  1  0.00000000  0.75000000  0.25000000  1
  V  V14  1  0.00000000  0.75000000  0.50000000  1
  V  V15  1  0.00000000  0.75000000  0.75000000  1
  V  V16  1  0.25000000  0.00000000  0.00000000  1
  W  W17  1  0.25000000  0.00000000  0.25000000  1
  V  V18  1  0.25000000  0.00000000  0.50000000  1
  Cr  Cr19  1  0.25000000  0.00000000  0.75000000  1
  V  V20  1  0.25000000  0.25000000  0.00000000  1
  V  V21  1  0.25000000  0.25000000  0.25000000  1
  V  V22  1  0.25000000  0.25000000  0.50000000  1
  Zr  Zr23  1  0.25000000  0.25000000  0.75000000  1
  V  V24  1  0.25000000  0.50000000  0.00000000  1
  V  V25  1  0.25000000  0.50000000  0.25000000  1
  V  V26  1  0.25000000  0.50000000  0.50000000  1
  Zr  Zr27  1  0.25000000  0.50000000  0.75000000  1
  V  V28  1  0.25000000  0.75000000  1.00000000  1
  V  V29  1  0.25000000  0.75000000  0.25000000  1
  V  V30  1  0.25000000  0.75000000  0.50000000  1
  V  V31  1  0.25000000  0.75000000  0.75000000  1
  V  V32  1  0.50000000  0.00000000  0.00000000  1
  V  V33  1  0.50000000  0.00000000  0.25000000  1
  V  V34  1  0.50000000  0.00000000  0.50000000  1
  W  W35  1  0.50000000  0.00000000  0.75000000  1
  Zr  Zr36  1  0.50000000  0.25000000  0.00000000  1
  Ti  Ti37  1  0.50000000  0.25000000  0.25000000  1
  V  V38  1  0.50000000  0.25000000  0.50000000  1
  Cr  Cr39  1  0.50000000  0.25000000  0.75000000  1
  Zr  Zr40  1  0.50000000  0.50000000  0.00000000  1
  Zr  Zr41  1  0.50000000  0.50000000  0.25000000  1
  W  W42  1  0.50000000  0.50000000  0.50000000  1
  Zr  Zr43  1  0.50000000  0.50000000  0.75000000  1
  Cr  Cr44  1  0.50000000  0.75000000  0.00000000  1
  W  W45  1  0.50000000  0.75000000  0.25000000  1
  V  V46  1  0.50000000  0.75000000  0.50000000  1
  W  W47  1  0.50000000  0.75000000  0.75000000  1
  V  V48  1  0.75000000  0.00000000  0.00000000  1
  V  V49  1  0.75000000  0.00000000  0.25000000  1
  Cr  Cr50  1  0.75000000  0.00000000  0.50000000  1
  Ti  Ti51  1  0.75000000  0.00000000  0.75000000  1
  V  V52  1  0.75000000  0.25000000  0.00000000  1
  V  V53  1  0.75000000  0.25000000  0.25000000  1
  Ti  Ti54  1  0.75000000  0.25000000  0.50000000  1
  V  V55  1  0.75000000  0.25000000  0.75000000  1
  V  V56  1  0.75000000  0.50000000  0.00000000  1
  V  V57  1  0.75000000  0.50000000  0.25000000  1
  V  V58  1  0.75000000  0.50000000  0.50000000  1
  V  V59  1  0.75000000  0.50000000  0.75000000  1
  W  W60  1  0.75000000  0.75000000  0.00000000  1
  V  V61  1  0.75000000  0.75000000  0.25000000  1
  V  V62  1  0.75000000  0.75000000  0.50000000  1
  V  V63  1  0.75000000  0.75000000  0.75000000  1
