# generated using pymatgen
data_Ti41V43Cr41
_symmetry_space_group_name_H-M   'P 1'
_cell_length_a   13.03368233
_cell_length_b   13.03368233
_cell_length_c   13.03368233
_cell_angle_alpha   109.47122063
_cell_angle_beta   109.47122063
_cell_angle_gamma   109.47122063
_symmetry_Int_Tables_number   1
_chemical_formula_structural   Ti41V43Cr41
_chemical_formula_sum   'Ti41 V43 Cr41'
_cell_volume   1704.43131250
_cell_formula_units_Z   1
loop_
 _symmetry_equiv_pos_site_id
 _symmetry_equiv_pos_as_xyz
  1  'x, y, z'
loop_
 _atom_site_type_symbol
 _atom_site_label
 _atom_site_symmetry_multiplicity
 _atom_site_fract_x
 _atom_site_fract_y
 _atom_site_fract_z
 _atom_site_occupancy
  Ti  Ti0  1  0.00000000  0.00000000  0.00000000  1
  Cr  Cr1  1  0.00000000  0.00000000  0.20000000  1
  V  V2  1  0.00000000  0.00000000  0.40000000  1
  V  V3  1  0.00000000  0.00000000  0.60000000  1
  Cr  Cr4  1  0.00000000  0.00000000  0.80000000  1
  Cr  Cr5  1  0.00000000  0.20000000  0.00000000  1
  V  V6  1  0.00000000  0.20000000  0.20000000  1
  Cr  Cr7  1  0.00000000  0.20000000  0.40000000  1
  V  V8  1  0.00000000  0.20000000  0.60000000  1
  Cr  Cr9  1  0.00000000  0.20000000  0.80000000  1
  Cr  Cr10  1  0.00000000  0.40000000  0.00000000  1
  V  V11  1  0.00000000  0.40000000  0.20000000  1
  V  V12  1  0.00000000  0.40000000  0.40000000  1
  Cr  Cr13  1  0.00000000  0.40000000  0.60000000  1
  Ti  Ti14  1  0.00000000  0.40000000  0.80000000  1
  V  V15  1  0.00000000  0.60000000  0.00000000  1
  Cr  Cr16  1  0.00000000  0.60000000  0.20000000  1
  Ti  Ti17  1  0.00000000  0.60000000  0.40000000  1
  Ti  Ti18  1  0.00000000  0.60000000  0.60000000  1
  Ti  Ti19  1  0.00000000  0.60000000  0.80000000  1
  Cr  Cr20  1  0.00000000  0.80000000  0.00000000  1
  Ti  Ti21  1  0.00000000  0.80000000  0.20000000  1
  Cr  Cr22  1  0.00000000  0.80000000  0.40000000  1
  Ti  Ti23  1  0.00000000  0.80000000  0.60000000  1
  V  V24  1  0.00000000  0.80000000  0.80000000  1
  Ti  Ti25  1  0.20000000  0.00000000  0.00000000  1
  V  V26  1  0.20000000  0.00000000  0.20000000  1
  Cr  Cr27  1  0.20000000  0.00000000  0.40000000  1
  Ti  Ti28  1  0.20000000  0.00000000  0.60000000  1
  V  V29  1  0.20000000  0.00000000  0.80000000  1
  V  V30  1  0.20000000  0.20000000  0.00000000  1
  Cr  Cr31  1  0.20000000  0.20000000  0.20000000  1
  Ti  Ti32  1  0.20000000  0.20000000  0.40000000  1
  Cr  Cr33  1  0.20000000  0.20000000  0.60000000  1
  Ti  Ti34  1  0.20000000  0.20000000  0.80000000  1
  V  V35  1  0.20000000  0.40000000  0.00000000  1
  Cr  Cr36  1  0.20000000  0.40000000  0.20000000  1
  Cr  Cr37  1  0.20000000  0.40000000  0.40000000  1
  V  V38  1  0.20000000  0.40000000  0.60000000  1
  Cr  Cr39  1  0.20000000  0.40000000  0.80000000  1
  Cr  Cr40  1  0.20000000  0.60000000  0.00000000  1
  Ti  Ti41  1  0.20000000  0.60000000  0.20000000  1
  Cr  Cr42  1  0.20000000  0.60000000  0.40000000  1
  Ti  Ti43  1  0.20000000  0.60000000  0.60000000  1
  V  V44  1  0.20000000  0.60000000  0.80000000  1
  Ti  Ti45  1  0.20000000  0.80000000  0.00000000  1
  Cr  Cr46  1  0.20000000  0.80000000  0.20000000  1
  V  V47  1  0.20000000  0.80000000  0.40000000  1
  V  V48  1  0.20000000  0.80000000  0.60000000  1
  Ti  Ti49  1  0.20000000  0.80000000  0.80000000  1
  V  V50  1  0.40000000  0.00000000  0.00000000  1
  Ti  Ti51  1  0.40000000  0.00000000  0.20000000  1
  Ti  Ti52  1  0.40000000  0.00000000  0.40000000  1
  Cr  Cr53  1  0.40000000  0.00000000  0.60000000  1
  Ti  Ti54  1  0.40000000  0.00000000  0.80000000  1
  Ti  Ti55  1  0.40000000  0.20000000  0.00000000  1
  V  V56  1  0.40000000  0.20000000  0.20000000  1
  Cr  Cr57  1  0.40000000  0.20000000  0.40000000  1
  V  V58  1  0.40000000  0.20000000  0.60000000  1
  V  V59  1  0.40000000  0.20000000  0.80000000  1
  Cr  Cr60  1  0.40000000  0.40000000  0.00000000  1
  Ti  Ti61  1  0.40000000  0.40000000  0.20000000  1
  V  V62  1  0.40000000  0.40000000  0.40000000  1
  Cr  Cr63  1  0.40000000  0.40000000  0.60000000  1
  V  V64  1  0.40000000  0.40000000  0.80000000  1
  Ti  Ti65  1  0.40000000  0.60000000  0.00000000  1
  Cr  Cr66  1  0.40000000  0.60000000  0.20000000  1
  V  V67  1  0.40000000  0.60000000  0.40000000  1
  V  V68  1  0.40000000  0.60000000  0.60000000  1
  Ti  Ti69  1  0.40000000  0.60000000  0.80000000  1
  Ti  Ti70  1  0.40000000  0.80000000  0.00000000  1
  V  V71  1  0.40000000  0.80000000  0.20000000  1
  Ti  Ti72  1  0.40000000  0.80000000  0.40000000  1
  Ti  Ti73  1  0.40000000  0.80000000  0.60000000  1
  V  V74  1  0.40000000  0.80000000  0.80000000  1
  Ti  Ti75  1  0.60000000  0.00000000  0.00000000  1
  Cr  Cr76  1  0.60000000  0.00000000  0.20000000  1
  Ti  Ti77  1  0.60000000  0.00000000  0.40000000  1
  V  V78  1  0.60000000  0.00000000  0.60000000  1
  V  V79  1  0.60000000  0.00000000  0.80000000  1
  V  V80  1  0.60000000  0.20000000  0.00000000  1
  Ti  Ti81  1  0.60000000  0.20000000  0.20000000  1
  V  V82  1  0.60000000  0.20000000  0.40000000  1
  Cr  Cr83  1  0.60000000  0.20000000  0.60000000  1
  Cr  Cr84  1  0.60000000  0.20000000  0.80000000  1
  Ti  Ti85  1  0.60000000  0.40000000  0.00000000  1
  Cr  Cr86  1  0.60000000  0.40000000  0.20000000  1
  Ti  Ti87  1  0.60000000  0.40000000  0.40000000  1
  Cr  Cr88  1  0.60000000  0.40000000  0.60000000  1
  V  V89  1  0.60000000  0.40000000  0.80000000  1
  Ti  Ti90  1  0.60000000  0.60000000  0.00000000  1
  V  V91  1  0.60000000  0.60000000  0.20000000  1
  Cr  Cr92  1  0.60000000  0.60000000  0.40000000  1
  V  V93  1  0.60000000  0.60000000  0.60000000  1
  Cr  Cr94  1  0.60000000  0.60000000  0.80000000  1
  V  V95  1  0.60000000  0.80000000  0.00000000  1
  Ti  Ti96  1  0.60000000  0.80000000  0.20000000  1
  Ti  Ti97  1  0.60000000  0.80000000  0.40000000  1
  Cr  Cr98  1  0.60000000  0.80000000  0.60000000  1
  Ti  Ti99  1  0.60000000  0.80000000  0.80000000  1
  V  V100  1  0.80000000  0.00000000  0.00000000  1
  Ti  Ti101  1  0.80000000  0.00000000  0.20000000  1
  V  V102  1  0.80000000  0.00000000  0.40000000  1
  Cr  Cr103  1  0.80000000  0.00000000  0.60000000  1
  V  V104  1  0.80000000  0.00000000  0.80000000  1
  Cr  Cr105  1  0.80000000  0.20000000  0.00000000  1
  V  V106  1  0.80000000  0.20000000  0.20000000  1
  Ti  Ti107  1  0.80000000  0.20000000  0.40000000  1
  Cr  Cr108  1  0.80000000  0.20000000  0.60000000  1
  V  V109  1  0.80000000  0.20000000  0.80000000  1
  Ti  Ti110  1  0.80000000  0.40000000  0.00000000  1
  Ti  Ti111  1  0.80000000  0.40000000  0.20000000  1
  Cr  Cr112  1  0.80000000  0.40000000  0.40000000  1
  V  V113  1  0.80000000  0.40000000  0.60000000  1
  Cr  Cr114  1  0.80000000  0.40000000  0.80000000  1
  Cr  Cr115  1  0.80000000  0.60000000  0.00000000  1
  V  V116  1  0.80000000  0.60000000  0.20000000  1
  V  V117  1  0.80000000  0.60000000  0.40000000  1
  Cr  Cr118  1  0.80000000  0.60000000  0.60000000  1
  Ti  Ti119  1  0.80000000  0.60000000  0.80000000  1
  V  V120  1  0.80000000  0.80000000  0.00000000  1
  Cr  Cr121  1  0.80000000  0.80000000  0.20000000  1
  Ti  Ti122  1  0.80000000  0.80000000  0.40000000  1
  Ti  Ti123  1  0.80000000  0.80000000  0.60000000  1
  Cr  Cr124  1  0.80000000  0.80000000  0.80000000  1
