# generated using pymatgen
data_Ti41V43Cr41
_symmetry_space_group_name_H-M   'P 1'
_cell_length_a   13.03368233
_cell_length_b   13.03368233
_cell_length_c   13.03368233
_cell_angle_alpha   109.47122063
_cell_angle_beta   109.47122063
_cell_angle_gamma   109.47122063
_symmetry_Int_Tables_number   1
_chemical_formula_structural   Ti41V43Cr41
_chemical_formula_sum   'Ti41 V43 Cr41'
_cell_volume   1704.43131250
_cell_formula_units_Z   1
loop_
 _symmetry_equiv_pos_site_id
 _symmetry_equiv_pos_as_xyz
  1  'x, y, z'
loop_
 _atom_site_type_symbol
 _atom_site_label
 _atom_site_symmetry_multiplicity
 _atom_site_fract_x
 _atom_site_fract_y
 _atom_site_fract_z
 _atom_site_occupancy
  V  V0  1  0.00000000  0.00000000  0.00000000  1
  Cr  Cr1  1  0.00000000  0.00000000  0.20000000  1
  V  V2  1  0.00000000  0.00000000  0.40000000  1
  Cr  Cr3  1  0.00000000  0.00000000  0.60000000  1
  V  V4  1  0.00000000  0.00000000  0.80000000  1
  Cr  Cr5  1  0.00000000  0.20000000  0.00000000  1
  V  V6  1  0.00000000  0.20000000  0.20000000  1
  Ti  Ti7  1  0.00000000  0.20000000  0.40000000  1
  V  V8  1  0.00000000  0.20000000  0.60000000  1
  Cr  Cr9  1  0.00000000  0.20000000  0.80000000  1
  Ti  Ti10  1  0.00000000  0.40000000  0.00000000  1
  Cr  Cr11  1  0.00000000  0.40000000  0.20000000  1
  V  V12  1  0.00000000  0.40000000  0.40000000  1
  Ti  Ti13  1  0.00000000  0.40000000  0.60000000  1
  V  V14  1  0.00000000  0.40000000  0.80000000  1
  Ti  Ti15  1  0.00000000  0.60000000  0.00000000  1
  V  V16  1  0.00000000  0.60000000  0.20000000  1
  V  V17  1  0.00000000  0.60000000  0.40000000  1
  V  V18  1  0.00000000  0.60000000  0.60000000  1
  Ti  Ti19  1  0.00000000  0.60000000  0.80000000  1
  Ti  Ti20  1  0.00000000  0.80000000  0.00000000  1
  V  V21  1  0.00000000  0.80000000  0.20000000  1
  Cr  Cr22  1  0.00000000  0.80000000  0.40000000  1
  Ti  Ti23  1  0.00000000  0.80000000  0.60000000  1
  Cr  Cr24  1  0.00000000  0.80000000  0.80000000  1
  Ti  Ti25  1  0.20000000  0.00000000  0.00000000  1
  V  V26  1  0.20000000  0.00000000  0.20000000  1
  V  V27  1  0.20000000  0.00000000  0.40000000  1
  V  V28  1  0.20000000  0.00000000  0.60000000  1
  Ti  Ti29  1  0.20000000  0.00000000  0.80000000  1
  V  V30  1  0.20000000  0.20000000  0.00000000  1
  Cr  Cr31  1  0.20000000  0.20000000  0.20000000  1
  Cr  Cr32  1  0.20000000  0.20000000  0.40000000  1
  Cr  Cr33  1  0.20000000  0.20000000  0.60000000  1
  Ti  Ti34  1  0.20000000  0.20000000  0.80000000  1
  Cr  Cr35  1  0.20000000  0.40000000  0.00000000  1
  Cr  Cr36  1  0.20000000  0.40000000  0.20000000  1
  V  V37  1  0.20000000  0.40000000  0.40000000  1
  Ti  Ti38  1  0.20000000  0.40000000  0.60000000  1
  Cr  Cr39  1  0.20000000  0.40000000  0.80000000  1
  Cr  Cr40  1  0.20000000  0.60000000  0.00000000  1
  Ti  Ti41  1  0.20000000  0.60000000  0.20000000  1
  Cr  Cr42  1  0.20000000  0.60000000  0.40000000  1
  V  V43  1  0.20000000  0.60000000  0.60000000  1
  Ti  Ti44  1  0.20000000  0.60000000  0.80000000  1
  Ti  Ti45  1  0.20000000  0.80000000  0.00000000  1
  V  V46  1  0.20000000  0.80000000  0.20000000  1
  Cr  Cr47  1  0.20000000  0.80000000  0.40000000  1
  V  V48  1  0.20000000  0.80000000  0.60000000  1
  V  V49  1  0.20000000  0.80000000  0.80000000  1
  Ti  Ti50  1  0.40000000  0.00000000  0.00000000  1
  Cr  Cr51  1  0.40000000  0.00000000  0.20000000  1
  Ti  Ti52  1  0.40000000  0.00000000  0.40000000  1
  V  V53  1  0.40000000  0.00000000  0.60000000  1
  Cr  Cr54  1  0.40000000  0.00000000  0.80000000  1
  Cr  Cr55  1  0.40000000  0.20000000  0.00000000  1
  Ti  Ti56  1  0.40000000  0.20000000  0.20000000  1
  V  V57  1  0.40000000  0.20000000  0.40000000  1
  Cr  Cr58  1  0.40000000  0.20000000  0.60000000  1
  Cr  Cr59  1  0.40000000  0.20000000  0.80000000  1
  V  V60  1  0.40000000  0.40000000  0.00000000  1
  Cr  Cr61  1  0.40000000  0.40000000  0.20000000  1
  V  V62  1  0.40000000  0.40000000  0.40000000  1
  V  V63  1  0.40000000  0.40000000  0.60000000  1
  Ti  Ti64  1  0.40000000  0.40000000  0.80000000  1
  V  V65  1  0.40000000  0.60000000  0.00000000  1
  V  V66  1  0.40000000  0.60000000  0.20000000  1
  Ti  Ti67  1  0.40000000  0.60000000  0.40000000  1
  Cr  Cr68  1  0.40000000  0.60000000  0.60000000  1
  Cr  Cr69  1  0.40000000  0.60000000  0.80000000  1
  Cr  Cr70  1  0.40000000  0.80000000  0.00000000  1
  Ti  Ti71  1  0.40000000  0.80000000  0.20000000  1
  V  V72  1  0.40000000  0.80000000  0.40000000  1
  V  V73  1  0.40000000  0.80000000  0.60000000  1
  Cr  Cr74  1  0.40000000  0.80000000  0.80000000  1
  V  V75  1  0.60000000  0.00000000  0.00000000  1
  Ti  Ti76  1  0.60000000  0.00000000  0.20000000  1
  Cr  Cr77  1  0.60000000  0.00000000  0.40000000  1
  Ti  Ti78  1  0.60000000  0.00000000  0.60000000  1
  Cr  Cr79  1  0.60000000  0.00000000  0.80000000  1
  V  V80  1  0.60000000  0.20000000  0.00000000  1
  Cr  Cr81  1  0.60000000  0.20000000  0.20000000  1
  Ti  Ti82  1  0.60000000  0.20000000  0.40000000  1
  Cr  Cr83  1  0.60000000  0.20000000  0.60000000  1
  V  V84  1  0.60000000  0.20000000  0.80000000  1
  Ti  Ti85  1  0.60000000  0.40000000  0.00000000  1
  Ti  Ti86  1  0.60000000  0.40000000  0.20000000  1
  Cr  Cr87  1  0.60000000  0.40000000  0.40000000  1
  V  V88  1  0.60000000  0.40000000  0.60000000  1
  V  V89  1  0.60000000  0.40000000  0.80000000  1
  Ti  Ti90  1  0.60000000  0.60000000  0.00000000  1
  Cr  Cr91  1  0.60000000  0.60000000  0.20000000  1
  Ti  Ti92  1  0.60000000  0.60000000  0.40000000  1
  V  V93  1  0.60000000  0.60000000  0.60000000  1
  Ti  Ti94  1  0.60000000  0.60000000  0.80000000  1
  V  V95  1  0.60000000  0.80000000  0.00000000  1
  Cr  Cr96  1  0.60000000  0.80000000  0.20000000  1
  V  V97  1  0.60000000  0.80000000  0.40000000  1
  V  V98  1  0.60000000  0.80000000  0.60000000  1
  Ti  Ti99  1  0.60000000  0.80000000  0.80000000  1
  Ti  Ti100  1  0.80000000  0.00000000  0.00000000  1
  Ti  Ti101  1  0.80000000  0.00000000  0.20000000  1
  Ti  Ti102  1  0.80000000  0.00000000  0.40000000  1
  Ti  Ti103  1  0.80000000  0.00000000  0.60000000  1
  V  V104  1  0.80000000  0.00000000  0.80000000  1
  Ti  Ti105  1  0.80000000  0.20000000  0.00000000  1
  V  V106  1  0.80000000  0.20000000  0.20000000  1
  Cr  Cr107  1  0.80000000  0.20000000  0.40000000  1
  Ti  Ti108  1  0.80000000  0.20000000  0.60000000  1
  Cr  Cr109  1  0.80000000  0.20000000  0.80000000  1
  Cr  Cr110  1  0.80000000  0.40000000  0.00000000  1
  Ti  Ti111  1  0.80000000  0.40000000  0.20000000  1
  Ti  Ti112  1  0.80000000  0.40000000  0.40000000  1
  Cr  Cr113  1  0.80000000  0.40000000  0.60000000  1
  Ti  Ti114  1  0.80000000  0.40000000  0.80000000  1
  Cr  Cr115  1  0.80000000  0.60000000  0.00000000  1
  V  V116  1  0.80000000  0.60000000  0.20000000  1
  Cr  Cr117  1  0.80000000  0.60000000  0.40000000  1
  Ti  Ti118  1  0.80000000  0.60000000  0.60000000  1
  V  V119  1  0.80000000  0.60000000  0.80000000  1
  Cr  Cr120  1  0.80000000  0.80000000  0.00000000  1
  Ti  Ti121  1  0.80000000  0.80000000  0.20000000  1
  V  V122  1  0.80000000  0.80000000  0.40000000  1
  Cr  Cr123  1  0.80000000  0.80000000  0.60000000  1
  Ti  Ti124  1  0.80000000  0.80000000  0.80000000  1
