# generated using pymatgen
data_Zr15Ti5V25Cr5W14
_symmetry_space_group_name_H-M   'P 1'
_cell_length_a   10.42694586
_cell_length_b   10.42694586
_cell_length_c   10.42694586
_cell_angle_alpha   109.47122063
_cell_angle_beta   109.47122063
_cell_angle_gamma   109.47122063
_symmetry_Int_Tables_number   1
_chemical_formula_structural   Zr15Ti5V25Cr5W14
_chemical_formula_sum   'Zr15 Ti5 V25 Cr5 W14'
_cell_volume   872.66883200
_cell_formula_units_Z   1
loop_
 _symmetry_equiv_pos_site_id
 _symmetry_equiv_pos_as_xyz
  1  'x, y, z'
loop_
 _atom_site_type_symbol
 _atom_site_label
 _atom_site_symmetry_multiplicity
 _atom_site_fract_x
 _atom_site_fract_y
 _atom_site_fract_z
 _atom_site_occupancy
  Zr  Zr0  1  0.00000000  0.25000000  1.00000000  1
  Zr  Zr1  1  0.00000000  0.50000000  0.75000000  1
  Zr  Zr2  1  0.25000000  1.00000000  0.50000000  1
  Zr  Zr3  1  0.25000000  0.25000000  1.00000000  1
  Zr  Zr4  1  0.25000000  0.75000000  0.25000000  1
  Zr  Zr5  1  0.50000000  0.00000000  0.50000000  1
  Zr  Zr6  1  0.50000000  0.50000000  1.00000000  1
  Zr  Zr7  1  0.50000000  0.50000000  0.25000000  1
  Zr  Zr8  1  0.50000000  0.75000000  0.25000000  1
  Zr  Zr9  1  0.75000000  0.00000000  0.25000000  1
  Zr  Zr10  1  0.75000000  0.00000000  0.50000000  1
  Zr  Zr11  1  0.75000000  0.25000000  0.00000000  1
  Zr  Zr12  1  0.75000000  0.25000000  0.25000000  1
  Zr  Zr13  1  0.75000000  0.25000000  0.75000000  1
  Zr  Zr14  1  0.75000000  0.75000000  0.75000000  1
  Ti  Ti15  1  0.00000000  0.50000000  0.50000000  1
  Ti  Ti16  1  0.00000000  0.75000000  0.50000000  1
  Ti  Ti17  1  0.25000000  0.25000000  0.75000000  1
  Ti  Ti18  1  0.25000000  0.50000000  1.00000000  1
  Ti  Ti19  1  0.50000000  0.75000000  1.00000000  1
  V  V20  1  0.00000000  0.00000000  0.00000000  1
  V  V21  1  0.00000000  1.00000000  0.25000000  1
  V  V22  1  0.00000000  0.25000000  0.25000000  1
  V  V23  1  0.00000000  0.25000000  0.50000000  1
  V  V24  1  0.00000000  0.50000000  1.00000000  1
  V  V25  1  0.00000000  0.50000000  0.25000000  1
  V  V26  1  0.00000000  0.75000000  0.25000000  1
  V  V27  1  0.25000000  0.00000000  0.00000000  1
  V  V28  1  0.25000000  0.00000000  0.25000000  1
  V  V29  1  0.25000000  1.00000000  0.75000000  1
  V  V30  1  0.25000000  0.25000000  0.50000000  1
  V  V31  1  0.25000000  0.50000000  0.25000000  1
  V  V32  1  0.25000000  0.75000000  1.00000000  1
  V  V33  1  0.25000000  0.75000000  0.75000000  1
  V  V34  1  0.50000000  0.00000000  0.25000000  1
  V  V35  1  0.50000000  0.25000000  0.00000000  1
  V  V36  1  0.50000000  0.25000000  0.50000000  1
  V  V37  1  0.50000000  0.25000000  0.75000000  1
  V  V38  1  0.50000000  0.50000000  0.50000000  1
  V  V39  1  0.50000000  0.75000000  0.75000000  1
  V  V40  1  0.75000000  0.00000000  0.75000000  1
  V  V41  1  0.75000000  0.25000000  0.50000000  1
  V  V42  1  0.75000000  0.50000000  1.00000000  1
  V  V43  1  0.75000000  0.50000000  0.75000000  1
  V  V44  1  0.75000000  0.75000000  1.00000000  1
  Cr  Cr45  1  0.00000000  0.75000000  0.00000000  1
  Cr  Cr46  1  0.50000000  1.00000000  0.75000000  1
  Cr  Cr47  1  0.50000000  0.75000000  0.50000000  1
  Cr  Cr48  1  0.75000000  0.00000000  0.00000000  1
  Cr  Cr49  1  0.75000000  0.50000000  0.50000000  1
  W  W50  1  0.00000000  1.00000000  0.50000000  1
  W  W51  1  0.00000000  1.00000000  0.75000000  1
  W  W52  1  0.00000000  0.25000000  0.75000000  1
  W  W53  1  0.00000000  0.75000000  0.75000000  1
  W  W54  1  0.25000000  0.25000000  0.25000000  1
  W  W55  1  0.25000000  0.50000000  0.50000000  1
  W  W56  1  0.25000000  0.50000000  0.75000000  1
  W  W57  1  0.25000000  0.75000000  0.50000000  1
  W  W58  1  0.50000000  0.00000000  0.00000000  1
  W  W59  1  0.50000000  0.25000000  0.25000000  1
  W  W60  1  0.50000000  0.50000000  0.75000000  1
  W  W61  1  0.75000000  0.50000000  0.25000000  1
  W  W62  1  0.75000000  0.75000000  0.25000000  1
  W  W63  1  0.75000000  0.75000000  0.50000000  1
