# generated using pymatgen
data_ZrTiV55Cr3W4
_symmetry_space_group_name_H-M   'P 1'
_cell_length_a   10.44552984
_cell_length_b   10.43233619
_cell_length_c   10.42118745
_cell_angle_alpha   109.42822979
_cell_angle_beta   109.52808343
_cell_angle_gamma   109.44857536
_symmetry_Int_Tables_number   1
_chemical_formula_structural   ZrTiV55Cr3W4
_chemical_formula_sum   'Zr1 Ti1 V55 Cr3 W4'
_cell_volume   874.28716561
_cell_formula_units_Z   1
loop_
 _symmetry_equiv_pos_site_id
 _symmetry_equiv_pos_as_xyz
  1  'x, y, z'
loop_
 _atom_site_type_symbol
 _atom_site_label
 _atom_site_symmetry_multiplicity
 _atom_site_fract_x
 _atom_site_fract_y
 _atom_site_fract_z
 _atom_site_occupancy
  Zr  Zr0  1  0.26207390  0.00364610  0.49899255  1
  Ti  Ti1  1  0.75483088  0.00013007  0.75691665  1
  V  V2  1  -0.00720547  -0.00079327  -0.00468608  1
  V  V3  1  -0.00173677  0.00066886  0.24544059  1
  V  V4  1  0.00669956  0.25826531  0.00712265  1
  V  V5  1  -0.00677283  0.24390096  0.24340837  1
  V  V6  1  -0.00102693  0.25318408  0.49996956  1
  V  V7  1  0.00016360  0.24932682  0.75430331  1
  V  V8  1  0.00101912  0.49857293  -0.00058210  1
  V  V9  1  -0.00175096  0.49482483  0.24574888  1
  V  V10  1  0.00037246  0.49649590  0.49971463  1
  V  V11  1  0.00402418  0.50031770  0.75369020  1
  V  V12  1  -0.00148786  0.74852019  -0.00134071  1
  V  V13  1  -0.01551563  0.74001202  0.23580485  1
  V  V14  1  0.00003080  0.75410735  0.75518100  1
  V  V15  1  0.24774654  -0.00339911  -0.00142407  1
  V  V16  1  0.24188086  -0.00614517  0.22959795  1
  V  V17  1  0.24560020  0.00173866  0.76195000  1
  V  V18  1  0.24288290  0.24733349  -0.00512986  1
  V  V19  1  0.24620459  0.25009539  0.24804831  1
  V  V20  1  0.24772745  0.26436018  0.49981901  1
  V  V21  1  0.25322154  0.25864426  0.75544625  1
  V  V22  1  0.24950285  0.50022362  -0.00020336  1
  V  V23  1  0.24923794  0.49735605  0.24646857  1
  V  V24  1  0.24958335  0.49992466  0.50050728  1
  V  V25  1  0.25051899  0.50163685  0.75349428  1
  V  V26  1  0.25011222  0.74630397  -0.00214317  1
  V  V27  1  0.24802600  0.74336972  0.24243110  1
  V  V28  1  0.25065593  0.73596192  0.50087043  1
  V  V29  1  0.25216372  0.74743352  0.75380314  1
  V  V30  1  0.50546955  -0.00282483  -0.00079136  1
  V  V31  1  0.49966163  -0.00380605  0.24702045  1
  V  V32  1  0.51757781  -0.00232394  0.50162505  1
  V  V33  1  0.49809945  0.00050877  0.75584892  1
  V  V34  1  0.50041482  0.25163764  0.00014157  1
  V  V35  1  0.50217001  0.25360728  0.50212441  1
  V  V36  1  0.51598211  0.26794679  0.76782648  1
  V  V37  1  0.50290282  0.50609702  0.00443200  1
  V  V38  1  0.49591892  0.49970462  0.24625631  1
  V  V39  1  0.49949238  0.50397846  0.50284031  1
  V  V40  1  0.50056782  0.50393517  0.75306460  1
  V  V41  1  0.49643860  0.74709243  -0.00235026  1
  V  V42  1  0.50383724  0.74740575  0.24610585  1
  V  V43  1  0.49710300  0.74338596  0.49461048  1
  V  V44  1  0.50766387  0.75589479  0.75746396  1
  V  V45  1  0.74740579  -0.00429858  0.24110021  1
  V  V46  1  0.74657484  0.00067861  0.49568415  1
  V  V47  1  0.75119029  0.24434136  0.00054781  1
  V  V48  1  0.75150614  0.24910406  0.24839861  1
  V  V49  1  0.75437494  0.25019750  0.50139351  1
  V  V50  1  0.75374117  0.25708419  0.75260676  1
  V  V51  1  0.74974368  0.49951058  -0.00013392  1
  V  V52  1  0.74730840  0.50159001  0.24599863  1
  V  V53  1  0.75284131  0.50401911  0.75476400  1
  V  V54  1  0.74797986  0.75402025  0.00327850  1
  V  V55  1  0.74806878  0.75264858  0.50126468  1
  V  V56  1  0.74891050  0.74526862  0.75415249  1
  Cr  Cr57  1  0.00405850  0.00343814  0.75559973  1
  Cr  Cr58  1  0.74849404  -0.00126740  0.00405229  1
  Cr  Cr59  1  0.74432396  0.74752640  0.24414629  1
  W  W60  1  -0.00746477  0.00103622  0.49934627  1
  W  W61  1  -0.00005757  0.74721670  0.49905134  1
  W  W62  1  0.49799076  0.24824064  0.24671166  1
  W  W63  1  0.75092622  0.50138728  0.50259798  1
