# generated using pymatgen
data_ZrTi3V53Cr6W
_symmetry_space_group_name_H-M   'P 1'
_cell_length_a   10.39775727
_cell_length_b   10.40752189
_cell_length_c   10.40162963
_cell_angle_alpha   109.71718270
_cell_angle_beta   109.37832396
_cell_angle_gamma   109.28590378
_symmetry_Int_Tables_number   1
_chemical_formula_structural   ZrTi3V53Cr6W
_chemical_formula_sum   'Zr1 Ti3 V53 Cr6 W1'
_cell_volume   866.83037680
_cell_formula_units_Z   1
loop_
 _symmetry_equiv_pos_site_id
 _symmetry_equiv_pos_as_xyz
  1  'x, y, z'
loop_
 _atom_site_type_symbol
 _atom_site_label
 _atom_site_symmetry_multiplicity
 _atom_site_fract_x
 _atom_site_fract_y
 _atom_site_fract_z
 _atom_site_occupancy
  Zr  Zr0  1  0.00431824  0.25696304  0.00297164  1
  Ti  Ti1  1  0.00649538  0.50474565  0.25421182  1
  Ti  Ti2  1  0.74455800  0.50402720  0.25459561  1
  Ti  Ti3  1  0.74560891  0.74765724  0.49709661  1
  V  V4  1  0.00049782  -0.01183146  -0.00143016  1
  V  V5  1  0.00878154  0.00279227  0.25628700  1
  V  V6  1  -0.00057067  -0.00158894  0.50007404  1
  V  V7  1  0.00654077  0.00176068  0.75213937  1
  V  V8  1  -0.00156289  0.24223447  0.26393622  1
  V  V9  1  0.00527409  0.25045947  0.50210858  1
  V  V10  1  0.00143545  0.25073150  0.73579876  1
  V  V11  1  0.00462357  0.52035836  -0.00765220  1
  V  V12  1  0.00745673  0.50773991  0.51301088  1
  V  V13  1  0.00117417  0.50084471  0.74917408  1
  V  V14  1  0.00552665  0.75586083  0.00427201  1
  V  V15  1  0.00084944  0.75792885  0.25186800  1
  V  V16  1  0.01353332  0.75856573  0.50459820  1
  V  V17  1  0.00565259  0.75008564  0.75054758  1
  V  V18  1  0.25058707  -0.00140883  0.00467599  1
  V  V19  1  0.25224774  0.00511191  0.49733920  1
  V  V20  1  0.25040625  -0.00606976  0.74875433  1
  V  V21  1  0.26114852  0.24702853  -0.00208174  1
  V  V22  1  0.25405576  0.24277438  0.25861478  1
  V  V23  1  0.25142068  0.24934337  0.74172504  1
  V  V24  1  0.25225197  0.50363512  -0.00283550  1
  V  V25  1  0.27836810  0.52272213  0.27153055  1
  V  V26  1  0.25224248  0.49500858  0.50363081  1
  V  V27  1  0.25664472  0.50973845  0.75526268  1
  V  V28  1  0.25955708  0.75515414  0.00062718  1
  V  V29  1  0.25108294  0.75996458  0.25088674  1
  V  V30  1  0.26219933  0.75722084  0.51119227  1
  V  V31  1  0.49158738  -0.01025020  -0.00095599  1
  V  V32  1  0.49873551  -0.00313231  0.49455065  1
  V  V33  1  0.49573362  -0.00043570  0.74672509  1
  V  V34  1  0.49113819  0.24312028  -0.00576365  1
  V  V35  1  0.50051817  0.24254417  0.25056144  1
  V  V36  1  0.49161327  0.24491294  0.49675466  1
  V  V37  1  0.49765844  0.24812111  0.74657548  1
  V  V38  1  0.49819920  0.50655187  -0.00237082  1
  V  V39  1  0.48315509  0.49086943  0.24081222  1
  V  V40  1  0.50260164  0.50314939  0.50388353  1
  V  V41  1  0.49361137  0.49308512  0.74403885  1
  V  V42  1  0.50023204  0.75650440  0.24700708  1
  V  V43  1  0.49356280  0.74628129  0.75043621  1
  V  V44  1  0.74078746  -0.00526656  0.24743137  1
  V  V45  1  0.75011386  0.00506924  0.49850315  1
  V  V46  1  0.73476268  -0.01716776  0.73333712  1
  V  V47  1  0.72534074  0.24100150  -0.00624622  1
  V  V48  1  0.74861067  0.24646800  0.25515428  1
  V  V49  1  0.74217055  0.24330051  0.49429917  1
  V  V50  1  0.74381721  0.24884415  0.74238977  1
  V  V51  1  0.74742357  0.50067990  -0.00694435  1
  V  V52  1  0.74790747  0.49186634  0.50820813  1
  V  V53  1  0.74541069  0.49812505  0.74657235  1
  V  V54  1  0.74217861  0.74650145  -0.00194721  1
  V  V55  1  0.75299831  0.75993099  0.24542021  1
  V  V56  1  0.74976030  0.74386770  0.75278288  1
  Cr  Cr57  1  0.25611210  -0.00016770  0.25147314  1
  Cr  Cr58  1  0.25400795  0.25092959  0.50348323  1
  Cr  Cr59  1  0.25178223  0.75049602  0.75206176  1
  Cr  Cr60  1  0.49530796  -0.00065360  0.25030992  1
  Cr  Cr61  1  0.49677702  0.74768351  -0.00165262  1
  Cr  Cr62  1  0.49683689  0.75131006  0.50091408  1
  W  W63  1  0.74714127  -0.00369877  -0.00073526  1
