# generated using pymatgen
data_Zr2Ti2V51(Cr2W)3
_symmetry_space_group_name_H-M   'P 1'
_cell_length_a   10.42162737
_cell_length_b   10.44993710
_cell_length_c   10.50347131
_cell_angle_alpha   109.70542774
_cell_angle_beta   109.45203605
_cell_angle_gamma   109.53155164
_symmetry_Int_Tables_number   1
_chemical_formula_structural   Zr2Ti2V51(Cr2W)3
_chemical_formula_sum   'Zr2 Ti2 V51 Cr6 W3'
_cell_volume   877.55401291
_cell_formula_units_Z   1
loop_
 _symmetry_equiv_pos_site_id
 _symmetry_equiv_pos_as_xyz
  1  'x, y, z'
loop_
 _atom_site_type_symbol
 _atom_site_label
 _atom_site_symmetry_multiplicity
 _atom_site_fract_x
 _atom_site_fract_y
 _atom_site_fract_z
 _atom_site_occupancy
  Zr  Zr0  1  0.49856845  0.25449454  0.25703483  1
  Zr  Zr1  1  0.74365635  0.74617489  0.49574861  1
  Ti  Ti2  1  0.76214542  0.24881869  0.25203989  1
  Ti  Ti3  1  0.74233143  0.74615283  0.75987312  1
  V  V4  1  0.00464787  0.00413797  0.00431034  1
  V  V5  1  0.00324749  0.00039330  0.25317004  1
  V  V6  1  0.00480935  0.00509868  0.50357523  1
  V  V7  1  0.01009048  0.01337265  0.75957263  1
  V  V8  1  0.00015573  0.24937167  -0.00274760  1
  V  V9  1  0.00910212  0.25082519  0.25265873  1
  V  V10  1  0.00330522  0.24988918  0.50144891  1
  V  V11  1  -0.00238900  0.25405801  0.74993063  1
  V  V12  1  -0.00127805  0.49763813  -0.00683092  1
  V  V13  1  0.01322128  0.50600934  0.51324120  1
  V  V14  1  0.00142954  0.75069721  0.00249149  1
  V  V15  1  0.00485490  0.75292586  0.24995999  1
  V  V16  1  0.01681738  0.75610630  0.50621741  1
  V  V17  1  0.00650929  0.74559097  0.75415544  1
  V  V18  1  0.23716331  -0.01662586  -0.01337772  1
  V  V19  1  0.25160376  -0.00208768  0.25391796  1
  V  V20  1  0.24663191  -0.00304802  0.49731717  1
  V  V21  1  0.25454939  0.00005963  0.74836868  1
  V  V22  1  0.24390197  0.24873486  -0.00708610  1
  V  V23  1  0.23376329  0.24859185  0.25044085  1
  V  V24  1  0.25212309  0.24999450  0.50254066  1
  V  V25  1  0.24590539  0.25073393  0.74617151  1
  V  V26  1  0.24667564  0.50020666  -0.00323741  1
  V  V27  1  0.25209761  0.50729263  0.25400917  1
  V  V28  1  0.25361539  0.50326479  0.50876797  1
  V  V29  1  0.24598386  0.49768439  0.75125983  1
  V  V30  1  0.24516869  0.74344596  -0.00349523  1
  V  V31  1  0.24909238  0.75190099  0.24763443  1
  V  V32  1  0.26209286  0.75725840  0.50444391  1
  V  V33  1  0.25985354  0.74992213  0.75288273  1
  V  V34  1  0.49275025  -0.00611899  -0.00915404  1
  V  V35  1  0.49636730  -0.01434827  0.24564136  1
  V  V36  1  0.50028382  0.00065448  0.50175032  1
  V  V37  1  0.49883794  0.25017871  -0.00831703  1
  V  V38  1  0.49498577  0.49840941  -0.00813437  1
  V  V39  1  0.47716882  0.49902118  0.22344576  1
  V  V40  1  0.49004206  0.49513297  0.50057763  1
  V  V41  1  0.49688775  0.50504022  0.75179492  1
  V  V42  1  0.49493657  0.74708203  -0.00507145  1
  V  V43  1  0.49456418  0.75228642  0.24824046  1
  V  V44  1  0.74930547  -0.00580492  0.25161945  1
  V  V45  1  0.75206489  0.01262288  0.50040077  1
  V  V46  1  0.74187499  0.00559870  0.74443533  1
  V  V47  1  0.74717169  0.24742748  -0.01253153  1
  V  V48  1  0.75214442  0.25062778  0.51299258  1
  V  V49  1  0.75259359  0.50271485  -0.00180691  1
  V  V50  1  0.75314745  0.50464037  0.24440234  1
  V  V51  1  0.77304287  0.50242097  0.52257129  1
  V  V52  1  0.75209497  0.49001939  0.75089711  1
  V  V53  1  0.75039069  0.74907611  0.00607115  1
  V  V54  1  0.75092672  0.75332156  0.23688588  1
  Cr  Cr55  1  0.00827559  0.50042641  0.75732107  1
  Cr  Cr56  1  0.49835980  -0.00289583  0.74855694  1
  Cr  Cr57  1  0.49734124  0.24845486  0.50822202  1
  Cr  Cr58  1  0.48932430  0.75050174  0.50282489  1
  Cr  Cr59  1  0.49253232  0.74896345  0.74665453  1
  Cr  Cr60  1  0.75221010  0.24943631  0.75188401  1
  W  W61  1  0.00214317  0.50115739  0.24924207  1
  W  W62  1  0.49991927  0.24752096  0.74505015  1
  W  W63  1  0.74686465  -0.00265319  -0.00287511  1
