# generated using pymatgen
data_Zr2Ti5V51Cr5W
_symmetry_space_group_name_H-M   'P 1'
_cell_length_a   10.51922735
_cell_length_b   10.45205115
_cell_length_c   10.45704349
_cell_angle_alpha   109.35601752
_cell_angle_beta   109.40526670
_cell_angle_gamma   109.66194635
_symmetry_Int_Tables_number   1
_chemical_formula_structural   Zr2Ti5V51Cr5W
_chemical_formula_sum   'Zr2 Ti5 V51 Cr5 W1'
_cell_volume   884.94935254
_cell_formula_units_Z   1
loop_
 _symmetry_equiv_pos_site_id
 _symmetry_equiv_pos_as_xyz
  1  'x, y, z'
loop_
 _atom_site_type_symbol
 _atom_site_label
 _atom_site_symmetry_multiplicity
 _atom_site_fract_x
 _atom_site_fract_y
 _atom_site_fract_z
 _atom_site_occupancy
  Zr  Zr0  1  -0.00268917  0.74661722  0.49771309  1
  Zr  Zr1  1  0.74856795  0.24585299  -0.00277256  1
  Ti  Ti2  1  0.25524256  0.75696321  0.00220977  1
  Ti  Ti3  1  0.49645001  0.50137016  -0.00632017  1
  Ti  Ti4  1  0.50426416  0.75231418  0.75918350  1
  Ti  Ti5  1  0.75048167  0.24529209  0.50023046  1
  Ti  Ti6  1  0.74521850  0.50301726  0.50061772  1
  V  V7  1  0.00698594  0.00272080  0.00372249  1
  V  V8  1  0.00520610  0.00326697  0.25342370  1
  V  V9  1  0.00853234  0.01705801  0.50817748  1
  V  V10  1  -0.00254787  0.00254821  0.75093007  1
  V  V11  1  0.00879233  0.24449309  0.00116252  1
  V  V12  1  0.00516105  0.24699379  0.25063963  1
  V  V13  1  0.00653082  0.24977225  0.49985887  1
  V  V14  1  0.00182558  0.24827228  0.74860005  1
  V  V15  1  0.00429231  0.50153517  -0.00048272  1
  V  V16  1  0.02101037  0.51321769  0.26018177  1
  V  V17  1  0.00894784  0.48476792  0.50443304  1
  V  V18  1  0.00048281  0.50140156  0.74897166  1
  V  V19  1  -0.00110423  0.75295951  0.00381005  1
  V  V20  1  0.00485636  0.75766845  0.24204502  1
  V  V21  1  0.01654652  0.76579318  0.77745929  1
  V  V22  1  0.25007570  0.00206893  0.24760817  1
  V  V23  1  0.25250246  -0.00005511  0.49604926  1
  V  V24  1  0.25539518  0.01440842  0.75983428  1
  V  V25  1  0.24947264  0.24660894  -0.00108589  1
  V  V26  1  0.25113215  0.24986765  0.25374442  1
  V  V27  1  0.25046584  0.24868105  0.50201277  1
  V  V28  1  0.25172494  0.49695067  0.24911378  1
  V  V29  1  0.24983126  0.49752319  0.49730156  1
  V  V30  1  0.25556262  0.50164067  0.75344704  1
  V  V31  1  0.25633380  0.75780098  0.26262056  1
  V  V32  1  0.24792456  0.75087597  0.74130792  1
  V  V33  1  0.49445309  -0.00934852  0.00026829  1
  V  V34  1  0.49708503  -0.00064414  0.25929554  1
  V  V35  1  0.48200042  -0.01144016  0.72498794  1
  V  V36  1  0.48679114  0.24204144  -0.00129497  1
  V  V37  1  0.48830169  0.23782928  0.24284268  1
  V  V38  1  0.49267751  0.24419578  0.49805362  1
  V  V39  1  0.48977475  0.24901411  0.74485155  1
  V  V40  1  0.49922982  0.50045412  0.25762174  1
  V  V41  1  0.49273455  0.49927621  0.50217390  1
  V  V42  1  0.49869965  0.48969590  0.73670702  1
  V  V43  1  0.49963780  0.75077745  0.24373346  1
  V  V44  1  0.49485517  0.75390264  0.49698037  1
  V  V45  1  0.76406777  -0.00421954  0.01005259  1
  V  V46  1  0.74643491  -0.00326310  0.24760107  1
  V  V47  1  0.74588328  -0.00560376  0.50040466  1
  V  V48  1  0.75031383  -0.00294719  0.75113331  1
  V  V49  1  0.74830763  0.24880135  0.25361564  1
  V  V50  1  0.73760916  0.23771339  0.73648407  1
  V  V51  1  0.75608780  0.51326313  -0.00415036  1
  V  V52  1  0.72723411  0.48685596  0.22679118  1
  V  V53  1  0.74629765  0.49454957  0.75132718  1
  V  V54  1  0.74591773  0.75200090  -0.00011495  1
  V  V55  1  0.75564724  0.75879292  0.25533236  1
  V  V56  1  0.73753005  0.76146242  0.50029687  1
  V  V57  1  0.75542349  0.75044558  0.74835442  1
  Cr  Cr58  1  0.24939979  0.00452271  0.00437454  1
  Cr  Cr59  1  0.24433152  0.24338545  0.74187287  1
  Cr  Cr60  1  0.25872579  0.75053736  0.49954531  1
  Cr  Cr61  1  0.49808157  0.00010858  0.49688594  1
  Cr  Cr62  1  0.50697352  0.76027099  0.00843411  1
  W  W63  1  0.24601746  0.49730186  -0.00021055  1
