# generated using pymatgen
data_ZrTi2V58CrW2
_symmetry_space_group_name_H-M   'P 1'
_cell_length_a   10.44791009
_cell_length_b   10.44923357
_cell_length_c   10.45128017
_cell_angle_alpha   109.56828435
_cell_angle_beta   109.41318811
_cell_angle_gamma   109.49442925
_symmetry_Int_Tables_number   1
_chemical_formula_structural   ZrTi2V58CrW2
_chemical_formula_sum   'Zr1 Ti2 V58 Cr1 W2'
_cell_volume   877.66105081
_cell_formula_units_Z   1
loop_
 _symmetry_equiv_pos_site_id
 _symmetry_equiv_pos_as_xyz
  1  'x, y, z'
loop_
 _atom_site_type_symbol
 _atom_site_label
 _atom_site_symmetry_multiplicity
 _atom_site_fract_x
 _atom_site_fract_y
 _atom_site_fract_z
 _atom_site_occupancy
  Zr  Zr0  1  0.74292413  0.49019056  0.24738502  1
  Ti  Ti1  1  0.49742380  0.24707411  0.25167159  1
  Ti  Ti2  1  0.75112964  0.24632793  -0.00281302  1
  V  V3  1  -0.00032016  -0.00097274  -0.00079982  1
  V  V4  1  0.00314746  0.00233716  0.24957576  1
  V  V5  1  -0.00095009  0.00297404  0.50145873  1
  V  V6  1  -0.00428455  -0.00100871  0.75055526  1
  V  V7  1  0.00530266  0.24804239  -0.00451755  1
  V  V8  1  0.00269239  0.24840708  0.24938807  1
  V  V9  1  0.00195377  0.25194034  0.50268078  1
  V  V10  1  -0.00214928  0.25021566  0.74939234  1
  V  V11  1  0.00104235  0.49820295  -0.00306668  1
  V  V12  1  0.02428794  0.50989438  0.25972003  1
  V  V13  1  0.00623463  0.50224341  0.50657304  1
  V  V14  1  0.00801980  0.50608801  0.75681648  1
  V  V15  1  0.00706920  0.75272255  -0.00046193  1
  V  V16  1  0.01058482  0.76107102  0.51175911  1
  V  V17  1  0.00078030  0.75215469  0.75250698  1
  V  V18  1  0.24399660  -0.01267549  -0.00328375  1
  V  V19  1  0.25259903  0.00333224  0.25096836  1
  V  V20  1  0.25246995  0.00091373  0.49710672  1
  V  V21  1  0.24609158  -0.00567430  0.74609103  1
  V  V22  1  0.24596919  0.24848180  0.00030671  1
  V  V23  1  0.24300408  0.24725566  0.25047849  1
  V  V24  1  0.24993692  0.25096742  0.49828457  1
  V  V25  1  0.24841022  0.50819947  -0.00167233  1
  V  V26  1  0.25072826  0.50170454  0.25048791  1
  V  V27  1  0.25336345  0.50250624  0.50519398  1
  V  V28  1  0.25022384  0.50339412  0.74926530  1
  V  V29  1  0.25313145  0.75262856  0.24599976  1
  V  V30  1  0.25536504  0.75207336  0.50319659  1
  V  V31  1  0.25118976  0.74810546  0.75463375  1
  V  V32  1  0.49984077  -0.00295899  -0.00137140  1
  V  V33  1  0.49182099  -0.01240358  0.24460094  1
  V  V34  1  0.50021713  -0.00093978  0.49904136  1
  V  V35  1  0.49517336  -0.01023016  0.74132288  1
  V  V36  1  0.47087695  0.22316938  -0.02841109  1
  V  V37  1  0.49658589  0.24742799  0.50444124  1
  V  V38  1  0.50031573  0.24826642  0.74561729  1
  V  V39  1  0.49712091  0.50470530  -0.00263333  1
  V  V40  1  0.48357768  0.51095571  0.25201313  1
  V  V41  1  0.49911061  0.50127410  0.50202641  1
  V  V42  1  0.49832529  0.50484824  0.74840320  1
  V  V43  1  0.49277883  0.74863137  -0.00362817  1
  V  V44  1  0.49988035  0.75317817  0.25182357  1
  V  V45  1  0.50197467  0.75358380  0.50354517  1
  V  V46  1  0.50001238  0.74971446  0.74952777  1
  V  V47  1  0.74956031  -0.00994995  -0.00429938  1
  V  V48  1  0.74945449  -0.00412648  0.24947038  1
  V  V49  1  0.74958835  0.00072637  0.50262691  1
  V  V50  1  0.75051119  0.00043860  0.75021388  1
  V  V51  1  0.75931213  0.22789496  0.25983658  1
  V  V52  1  0.74940553  0.24848964  0.50244961  1
  V  V53  1  0.75200986  0.24810293  0.74284901  1
  V  V54  1  0.75136833  0.50996716  -0.01384833  1
  V  V55  1  0.75986134  0.51077228  0.52747312  1
  V  V56  1  0.75124615  0.50181606  0.75079252  1
  V  V57  1  0.74917395  0.75314642  -0.00284372  1
  V  V58  1  0.74893149  0.76146877  0.25020097  1
  V  V59  1  0.75052529  0.75511569  0.50443635  1
  V  V60  1  0.75038761  0.75329217  0.75170275  1
  Cr  Cr61  1  0.24958618  0.74929286  -0.00057515  1
  W  W62  1  0.00269367  0.75334035  0.25045233  1
  W  W63  1  0.24740444  0.25187212  0.74786193  1
