# generated using pymatgen
data_Zr0.109Ti0.062V0.611Cr0.109W0.109
_symmetry_space_group_name_H-M   'P 1'
_cell_length_a   2.60673647
_cell_length_b   2.60673647
_cell_length_c   2.60673647
_cell_angle_alpha   109.47122063
_cell_angle_beta   109.47122063
_cell_angle_gamma   109.47122063
_symmetry_Int_Tables_number   1
_chemical_formula_structural   Zr0.109Ti0.062V0.611Cr0.109W0.109
_chemical_formula_sum   'Zr0.109 Ti0.062 V0.611 Cr0.109 W0.109'
_cell_volume   13.63545050
_cell_formula_units_Z   1
loop_
 _symmetry_equiv_pos_site_id
 _symmetry_equiv_pos_as_xyz
  1  'x, y, z'
loop_
 _atom_site_type_symbol
 _atom_site_label
 _atom_site_symmetry_multiplicity
 _atom_site_fract_x
 _atom_site_fract_y
 _atom_site_fract_z
 _atom_site_occupancy
  Zr  Zr0  1  0.00000000  0.00000000  0.00000000  0.109
  Ti  Ti1  1  0.00000000  0.00000000  0.00000000  0.062
  V  V2  1  0.00000000  0.00000000  0.00000000  0.611
  Cr  Cr3  1  0.00000000  0.00000000  0.00000000  0.109
  W  W4  1  0.00000000  0.00000000  0.00000000  0.109
