# generated using pymatgen
data_Zr0.20312Ti0.20312V0.1875Cr0.20312W0.20312
_symmetry_space_group_name_H-M   'P 1'
_cell_length_a   3.01000000
_cell_length_b   3.01000000
_cell_length_c   3.01000000
_cell_angle_alpha   90.00000000
_cell_angle_beta   90.00000000
_cell_angle_gamma   90.00000000
_symmetry_Int_Tables_number   1
_chemical_formula_structural
Zr0.20312Ti0.20312V0.1875Cr0.20312W0.20312
_chemical_formula_sum
'Zr0.20312 Ti0.20312 V0.1875 Cr0.20312 W0.20312'
_cell_volume   27.27090100
_cell_formula_units_Z   1
loop_
 _symmetry_equiv_pos_site_id
 _symmetry_equiv_pos_as_xyz
  1  'x, y, z'
loop_
 _atom_site_type_symbol
 _atom_site_label
 _atom_site_symmetry_multiplicity
 _atom_site_fract_x
 _atom_site_fract_y
 _atom_site_fract_z
 _atom_site_occupancy
  Zr  Zr0  1  0.00000000  0.00000000  0.00000000  0.20312
  Ti  Ti1  1  0.00000000  0.00000000  0.00000000  0.20312
  V  V2  1  0.00000000  0.00000000  0.00000000  0.1875
  Cr  Cr3  1  0.00000000  0.00000000  0.00000000  0.20312
  W  W4  1  0.00000000  0.00000000  0.00000000  0.20312
